untitled-dbase-5868_1
  -OEChem-08222312023D

 42 45  0     0  0  0  0  0  0999 V2000
   -7.8305    3.1551  -13.9019 C   0  0  0  0  0  0  0  0  0  0  0  0
   -8.0918    4.5598  -13.7681 C   0  0  0  0  0  0  0  0  0  0  0  0
   -8.4264    5.1639  -12.5475 C   0  0  0  0  0  0  0  0  0  0  0  0
   -8.6656    6.5507  -12.5160 C   0  0  0  0  0  0  0  0  0  0  0  0
   -8.5401    4.4732  -11.3431 C   0  0  0  0  0  0  0  0  0  0  0  0
   -8.0115    5.3608  -14.8973 C   0  0  0  0  0  0  0  0  0  0  0  0
   -8.8783    5.1632  -10.1840 C   0  0  0  0  0  0  0  0  0  0  0  0
   -8.5551    7.2560  -13.7161 C   0  0  0  0  0  0  0  0  0  0  0  0
   -9.0005    7.1478  -11.2886 C   0  0  0  0  0  0  0  0  0  0  0  0
   -8.6290    2.9517   -9.5361 C   0  0  0  0  0  0  0  0  0  0  0  0
   -8.3540    3.0204  -11.0378 C   0  0  0  0  0  0  0  0  0  0  0  0
   -8.4890    3.7209  -16.7288 C   0  0  0  0  0  0  0  0  0  0  0  0
   -6.7957    5.4633  -17.0600 C   0  0  0  0  0  0  0  0  0  0  0  0
   -9.2915    4.3276  -17.8747 C   0  0  0  0  0  0  0  0  0  0  0  0
   -7.6511    6.0052  -18.2061 C   0  0  0  0  0  0  0  0  0  0  0  0
   -9.2557    4.6578   -7.7724 C   0  0  0  0  0  0  0  0  0  0  0  0
   -7.6192    2.0191  -14.0102 N   0  0  0  0  0  0  0  0  0  0  0  0
   -8.2344    6.6934  -14.9031 N   0  0  0  0  0  0  0  0  0  0  0  0
   -9.1140    6.4841  -10.1134 N   0  0  0  0  0  0  0  0  0  0  0  0
   -8.9292    4.2519   -9.1180 N   0  0  0  0  0  0  0  0  0  0  0  0
   -7.6820    4.7772  -16.1140 N   0  0  0  0  0  0  0  0  0  0  0  0
   -8.7786    8.6500  -13.7752 N   0  0  0  0  0  0  0  0  0  0  0  0
   -9.2507    8.5363  -11.1952 N   0  0  0  0  0  0  0  0  0  0  0  0
   -8.5843    1.9311   -8.8657 O   0  0  0  0  0  0  0  0  0  0  0  0
   -8.4072    4.9516  -18.8136 O   0  0  0  0  0  0  0  0  0  0  0  0
   -9.0883    2.3955  -11.5532 H   0  0  0  0  0  0  0  0  0  0  0  0
   -7.3265    2.6926  -11.2165 H   0  0  0  0  0  0  0  0  0  0  0  0
   -9.1711    3.2673  -16.0014 H   0  0  0  0  0  0  0  0  0  0  0  0
   -7.8258    2.9380  -17.1164 H   0  0  0  0  0  0  0  0  0  0  0  0
   -6.0633    4.7509  -17.4519 H   0  0  0  0  0  0  0  0  0  0  0  0
   -6.2615    6.2864  -16.5794 H   0  0  0  0  0  0  0  0  0  0  0  0
   -9.8347    3.5419  -18.4040 H   0  0  0  0  0  0  0  0  0  0  0  0
  -10.0227    5.0567  -17.5144 H   0  0  0  0  0  0  0  0  0  0  0  0
   -8.3276    6.7965  -17.8627 H   0  0  0  0  0  0  0  0  0  0  0  0
   -7.0044    6.4358  -18.9766 H   0  0  0  0  0  0  0  0  0  0  0  0
  -10.3435    4.5917   -7.6227 H   0  0  0  0  0  0  0  0  0  0  0  0
   -8.7463    3.9963   -7.0562 H   0  0  0  0  0  0  0  0  0  0  0  0
   -8.9260    5.6949   -7.6122 H   0  0  0  0  0  0  0  0  0  0  0  0
   -9.0667    9.1307  -12.9486 H   0  0  0  0  0  0  0  0  0  0  0  0
   -8.7362    9.1109  -14.6601 H   0  0  0  0  0  0  0  0  0  0  0  0
   -9.1408    9.1041  -12.0088 H   0  0  0  0  0  0  0  0  0  0  0  0
   -9.4396    8.9349  -10.2997 H   0  0  0  0  0  0  0  0  0  0  0  0
  1  2  1  0  0  0  0
  1 17  3  0  0  0  0
  2  3  2  0  0  0  0
  2  6  1  0  0  0  0
  3  4  1  0  0  0  0
  3  5  1  0  0  0  0
  4  8  2  0  0  0  0
  4  9  1  0  0  0  0
  5  7  2  0  0  0  0
  5 11  1  0  0  0  0
  6 18  2  0  0  0  0
  6 21  1  0  0  0  0
  7 19  1  0  0  0  0
  7 20  1  0  0  0  0
  8 18  1  0  0  0  0
  8 22  1  0  0  0  0
  9 19  2  0  0  0  0
  9 23  1  0  0  0  0
 10 11  1  0  0  0  0
 10 20  1  0  0  0  0
 10 24  2  0  0  0  0
 12 14  1  0  0  0  0
 12 21  1  0  0  0  0
 13 15  1  0  0  0  0
 13 21  1  0  0  0  0
 14 25  1  0  0  0  0
 15 25  1  0  0  0  0
 16 20  1  0  0  0  0
 11 26  1  0  0  0  0
 11 27  1  0  0  0  0
 12 28  1  0  0  0  0
 12 29  1  0  0  0  0
 13 30  1  0  0  0  0
 13 31  1  0  0  0  0
 14 32  1  0  0  0  0
 14 33  1  0  0  0  0
 15 34  1  0  0  0  0
 15 35  1  0  0  0  0
 16 36  1  0  0  0  0
 16 37  1  0  0  0  0
 16 38  1  0  0  0  0
 22 39  1  0  0  0  0
 22 40  1  0  0  0  0
 23 41  1  0  0  0  0
 23 42  1  0  0  0  0
M  END
> <id>
EN300-14035

> <smiles>
CN1C(=O)CC=2C1=NC(N)=C3C(N)=NC(N4CCOCC4)=C(C#N)C23

> <MDLNUMBER>
MFCD06660842

> <IUPAC Name>
5,6-diamino-3-methyl-8-(morpholin-4-yl)-2-oxo-1H,2H,3H-pyrrolo[2,3-c]2,7-naphthyridine-9-carbonitrile

> <CAS>
885524-48-1

> <URL>
https://www.enaminestore.com/catalog/EN300-14035

> <ROCS_ShapeQuery>
_x0404_0B

> <ROCS_TanimotoCombo>
0.498 

> <ROCS_ShapeTanimoto>
0.389 

> <ROCS_ColorTanimoto>
0.109 

> <ROCS_RefTversky>
0.342 

> <ROCS_RefColorTversky>
0.120 

> <ROCS_RefTverskyCombo>
0.462 

> <ROCS_FitTversky>
1.557 

> <ROCS_FitColorTversky>
0.538 

> <ROCS_FitTverskyCombo>
2.094 

> <ROCS_ColorScore>
-8.695

> <ROCS_Overlap>
2284.844

> <ROCS_Rank>
1                   

$$$$
untitled-dbase-5840_2
  -OEChem-08222312023D

 44 47  0     0  0  0  0  0  0999 V2000
   -7.8280    3.1524  -13.8989 C   0  0  0  0  0  0  0  0  0  0  0  0
   -8.0899    4.5572  -13.7669 C   0  0  0  0  0  0  0  0  0  0  0  0
   -8.4261    5.1624  -12.5473 C   0  0  0  0  0  0  0  0  0  0  0  0
   -8.6659    6.5492  -12.5175 C   0  0  0  0  0  0  0  0  0  0  0  0
   -8.5411    4.4729  -11.3423 C   0  0  0  0  0  0  0  0  0  0  0  0
   -8.0085    5.3570  -14.8968 C   0  0  0  0  0  0  0  0  0  0  0  0
   -8.8809    5.1640  -10.1844 C   0  0  0  0  0  0  0  0  0  0  0  0
   -8.5541    7.2533  -13.7182 C   0  0  0  0  0  0  0  0  0  0  0  0
   -9.0024    7.1475  -11.2911 C   0  0  0  0  0  0  0  0  0  0  0  0
   -8.6316    2.9532   -9.5339 C   0  0  0  0  0  0  0  0  0  0  0  0
   -8.3548    3.0205  -11.0353 C   0  0  0  0  0  0  0  0  0  0  0  0
   -8.4875    5.0516  -18.8549 C   0  0  0  0  0  0  0  0  0  0  0  0
   -9.3519    4.3066  -17.8352 C   0  0  0  0  0  0  0  0  0  0  0  0
   -7.5788    6.0779  -18.1744 C   0  0  0  0  0  0  0  0  0  0  0  0
   -8.4913    3.7141  -16.7195 C   0  0  0  0  0  0  0  0  0  0  0  0
   -6.7622    5.4432  -17.0444 C   0  0  0  0  0  0  0  0  0  0  0  0
   -9.2611    4.6610   -7.7727 C   0  0  0  0  0  0  0  0  0  0  0  0
   -7.6162    2.0164  -14.0058 N   0  0  0  0  0  0  0  0  0  0  0  0
   -8.2319    6.6896  -14.9042 N   0  0  0  0  0  0  0  0  0  0  0  0
   -9.1171    6.4849  -10.1154 N   0  0  0  0  0  0  0  0  0  0  0  0
   -8.9327    4.2538   -9.1175 N   0  0  0  0  0  0  0  0  0  0  0  0
   -7.6769    4.7715  -16.1141 N   0  0  0  0  0  0  0  0  0  0  0  0
   -8.7781    8.6472  -13.7790 N   0  0  0  0  0  0  0  0  0  0  0  0
   -9.2532    8.5359  -11.1994 N   0  0  0  0  0  0  0  0  0  0  0  0
   -8.5874    1.9333   -8.8624 O   0  0  0  0  0  0  0  0  0  0  0  0
   -9.0883    2.3948  -11.5509 H   0  0  0  0  0  0  0  0  0  0  0  0
   -7.3270    2.6929  -11.2125 H   0  0  0  0  0  0  0  0  0  0  0  0
   -7.8748    4.3300  -19.4167 H   0  0  0  0  0  0  0  0  0  0  0  0
   -9.1321    5.5562  -19.5891 H   0  0  0  0  0  0  0  0  0  0  0  0
  -10.0871    4.9933  -17.4069 H   0  0  0  0  0  0  0  0  0  0  0  0
   -9.9038    3.5093  -18.3373 H   0  0  0  0  0  0  0  0  0  0  0  0
   -6.9008    6.5145  -18.9151 H   0  0  0  0  0  0  0  0  0  0  0  0
   -8.1854    6.8977  -17.7725 H   0  0  0  0  0  0  0  0  0  0  0  0
   -9.1472    3.2509  -15.9729 H   0  0  0  0  0  0  0  0  0  0  0  0
   -7.8411    2.9292  -17.1257 H   0  0  0  0  0  0  0  0  0  0  0  0
   -6.0503    4.7221  -17.4573 H   0  0  0  0  0  0  0  0  0  0  0  0
   -6.1946    6.2276  -16.5356 H   0  0  0  0  0  0  0  0  0  0  0  0
  -10.3490    4.5947   -7.6243 H   0  0  0  0  0  0  0  0  0  0  0  0
   -8.7523    4.0004   -7.0552 H   0  0  0  0  0  0  0  0  0  0  0  0
   -8.9319    5.6984   -7.6131 H   0  0  0  0  0  0  0  0  0  0  0  0
   -9.0674    9.1286  -12.9532 H   0  0  0  0  0  0  0  0  0  0  0  0
   -8.7348    9.1072  -14.6644 H   0  0  0  0  0  0  0  0  0  0  0  0
   -9.1426    9.1029  -12.0135 H   0  0  0  0  0  0  0  0  0  0  0  0
   -9.4434    8.9354  -10.3046 H   0  0  0  0  0  0  0  0  0  0  0  0
  1  2  1  0  0  0  0
  1 18  3  0  0  0  0
  2  3  2  0  0  0  0
  2  6  1  0  0  0  0
  3  4  1  0  0  0  0
  3  5  1  0  0  0  0
  4  8  2  0  0  0  0
  4  9  1  0  0  0  0
  5  7  2  0  0  0  0
  5 11  1  0  0  0  0
  6 19  2  0  0  0  0
  6 22  1  0  0  0  0
  7 20  1  0  0  0  0
  7 21  1  0  0  0  0
  8 19  1  0  0  0  0
  8 23  1  0  0  0  0
  9 20  2  0  0  0  0
  9 24  1  0  0  0  0
 10 11  1  0  0  0  0
 10 21  1  0  0  0  0
 10 25  2  0  0  0  0
 12 13  1  0  0  0  0
 12 14  1  0  0  0  0
 13 15  1  0  0  0  0
 14 16  1  0  0  0  0
 15 22  1  0  0  0  0
 16 22  1  0  0  0  0
 17 21  1  0  0  0  0
 11 26  1  0  0  0  0
 11 27  1  0  0  0  0
 12 28  1  0  0  0  0
 12 29  1  0  0  0  0
 13 30  1  0  0  0  0
 13 31  1  0  0  0  0
 14 32  1  0  0  0  0
 14 33  1  0  0  0  0
 15 34  1  0  0  0  0
 15 35  1  0  0  0  0
 16 36  1  0  0  0  0
 16 37  1  0  0  0  0
 17 38  1  0  0  0  0
 17 39  1  0  0  0  0
 17 40  1  0  0  0  0
 23 41  1  0  0  0  0
 23 42  1  0  0  0  0
 24 43  1  0  0  0  0
 24 44  1  0  0  0  0
M  END
> <id>
EN300-14033

> <smiles>
CN1C(=O)CC=2C1=NC(N)=C3C(N)=NC(N4CCCCC4)=C(C#N)C23

> <MDLNUMBER>
MFCD06660840

> <IUPAC Name>
5,6-diamino-3-methyl-2-oxo-8-(piperidin-1-yl)-1H,2H,3H-pyrrolo[2,3-c]2,7-naphthyridine-9-carbonitrile

> <CAS>
885524-44-7

> <URL>
https://www.enaminestore.com/catalog/EN300-14033

> <ROCS_ShapeQuery>
_x0404_0B

> <ROCS_TanimotoCombo>
0.498 

> <ROCS_ShapeTanimoto>
0.387 

> <ROCS_ColorTanimoto>
0.110 

> <ROCS_RefTversky>
0.340 

> <ROCS_RefColorTversky>
0.120 

> <ROCS_RefTverskyCombo>
0.461 

> <ROCS_FitTversky>
1.557 

> <ROCS_FitColorTversky>
0.573 

> <ROCS_FitTverskyCombo>
2.129 

> <ROCS_ColorScore>
-8.718

> <ROCS_Overlap>
2274.008

> <ROCS_Rank>
2                   

$$$$
untitled-dbase-119112_0
  -OEChem-08222312023D

 46 50  0     0  0  0  0  0  0999 V2000
   -6.1658    5.4604  -18.6633 B   0  0  0  0  0  0  0  0  0  0  0  0
   -8.7267    4.6200  -19.1830 C   0  0  0  0  0  0  0  0  0  0  0  0
   -8.7400    6.8038  -11.7712 C   0  0  0  0  0  0  0  0  0  0  0  0
   -9.9835    4.3205  -17.1181 C   0  0  0  0  0  0  0  0  0  0  0  0
   -7.6353    5.0036  -18.4381 C   0  0  0  0  0  0  0  0  0  0  0  0
   -8.7749    6.1369  -10.5382 C   0  0  0  0  0  0  0  0  0  0  0  0
   -7.7033    5.0514  -17.0251 C   0  0  0  0  0  0  0  0  0  0  0  0
   -8.8772    4.7097  -16.3618 C   0  0  0  0  0  0  0  0  0  0  0  0
   -9.9085    4.2764  -18.5177 C   0  0  0  0  0  0  0  0  0  0  0  0
   -8.7748    5.8191  -12.7584 C   0  0  0  0  0  0  0  0  0  0  0  0
   -8.8224    4.7959  -10.7874 C   0  0  0  0  0  0  0  0  0  0  0  0
   -8.7540    5.9597  -14.2040 C   0  0  0  0  0  0  0  0  0  0  0  0
   -8.7712    6.4247   -9.0901 C   0  0  0  0  0  0  0  0  0  0  0  0
   -6.4332    5.4899  -16.3647 C   0  0  0  0  0  0  0  0  0  0  0  0
   -8.8519    3.9273   -9.5984 C   0  0  0  0  0  0  0  0  0  0  0  0
   -8.8289    3.3538  -12.8483 C   0  0  0  0  0  0  0  0  0  0  0  0
   -9.4687    3.5515  -14.2188 C   0  0  0  0  0  0  0  0  0  0  0  0
   -8.5324    4.9835   -8.4543 C   0  0  0  0  0  0  0  0  0  0  0  0
   -7.0628    4.8475   -8.0192 C   0  0  0  0  0  0  0  0  0  0  0  0
   -9.4446    4.7664   -7.2441 C   0  0  0  0  0  0  0  0  0  0  0  0
   -8.8182    4.5961  -12.1187 N   0  0  0  0  0  0  0  0  0  0  0  0
   -8.9670    4.7524  -14.9230 N   0  0  0  0  0  0  0  0  0  0  0  0
   -8.5905    7.0625  -14.7229 O   0  0  0  0  0  0  0  0  0  0  0  0
   -5.5139    5.7280  -17.4610 O   0  0  0  0  0  0  0  0  0  0  0  0
   -5.5860    5.5842  -19.8910 O   0  0  0  0  0  0  0  0  0  0  0  0
  -10.9822    3.8996  -19.2254 F   0  0  0  0  0  0  0  0  0  0  0  0
   -8.6859    4.5803  -20.2672 H   0  0  0  0  0  0  0  0  0  0  0  0
   -8.6963    7.8702  -11.9443 H   0  0  0  0  0  0  0  0  0  0  0  0
  -10.9165    4.0469  -16.6311 H   0  0  0  0  0  0  0  0  0  0  0  0
   -7.9837    7.1321   -8.8129 H   0  0  0  0  0  0  0  0  0  0  0  0
   -9.7412    6.8359   -8.7891 H   0  0  0  0  0  0  0  0  0  0  0  0
   -6.5632    6.4229  -15.8044 H   0  0  0  0  0  0  0  0  0  0  0  0
   -6.0166    4.7088  -15.7189 H   0  0  0  0  0  0  0  0  0  0  0  0
   -9.8473    3.4881   -9.4737 H   0  0  0  0  0  0  0  0  0  0  0  0
   -8.1067    3.1280   -9.6447 H   0  0  0  0  0  0  0  0  0  0  0  0
   -9.3848    2.6108  -12.2678 H   0  0  0  0  0  0  0  0  0  0  0  0
   -7.7877    3.0261  -12.9432 H   0  0  0  0  0  0  0  0  0  0  0  0
   -9.2966    2.6660  -14.8415 H   0  0  0  0  0  0  0  0  0  0  0  0
  -10.5522    3.6870  -14.1073 H   0  0  0  0  0  0  0  0  0  0  0  0
   -6.9071    3.8644   -7.5874 H   0  0  0  0  0  0  0  0  0  0  0  0
   -6.8359    5.6105   -7.2821 H   0  0  0  0  0  0  0  0  0  0  0  0
   -6.4205    4.9725   -8.8847 H   0  0  0  0  0  0  0  0  0  0  0  0
   -9.2668    3.7787   -6.8250 H   0  0  0  0  0  0  0  0  0  0  0  0
  -10.4847    4.8443   -7.5519 H   0  0  0  0  0  0  0  0  0  0  0  0
   -9.2354    5.5205   -6.4889 H   0  0  0  0  0  0  0  0  0  0  0  0
   -6.2024    5.3524  -20.6082 H   0  0  0  0  0  0  0  0  0  0  0  0
  1  5  1  0  0  0  0
  1 24  1  0  0  0  0
  1 25  1  0  0  0  0
  2  5  1  0  0  0  0
  2  9  2  0  0  0  0
  3  6  1  0  0  0  0
  3 10  2  0  0  0  0
  4  8  2  0  0  0  0
  4  9  1  0  0  0  0
  5  7  2  0  0  0  0
  6 11  2  0  0  0  0
  6 13  1  0  0  0  0
  7  8  1  0  0  0  0
  7 14  1  0  0  0  0
  8 22  1  0  0  0  0
  9 26  1  0  0  0  0
 10 12  1  0  0  0  0
 10 21  1  0  0  0  0
 11 15  1  0  0  0  0
 11 21  1  0  0  0  0
 12 22  1  0  0  0  0
 12 23  2  0  0  0  0
 13 18  1  0  0  0  0
 14 24  1  0  0  0  0
 15 18  1  0  0  0  0
 16 17  1  0  0  0  0
 16 21  1  0  0  0  0
 17 22  1  0  0  0  0
 18 19  1  0  0  0  0
 18 20  1  0  0  0  0
  2 27  1  0  0  0  0
  3 28  1  0  0  0  0
  4 29  1  0  0  0  0
 13 30  1  0  0  0  0
 13 31  1  0  0  0  0
 14 32  1  0  0  0  0
 14 33  1  0  0  0  0
 15 34  1  0  0  0  0
 15 35  1  0  0  0  0
 16 36  1  0  0  0  0
 16 37  1  0  0  0  0
 17 38  1  0  0  0  0
 17 39  1  0  0  0  0
 19 40  1  0  0  0  0
 19 41  1  0  0  0  0
 19 42  1  0  0  0  0
 20 43  1  0  0  0  0
 20 44  1  0  0  0  0
 20 45  1  0  0  0  0
 25 46  1  0  0  0  0
M  END
> <id>
EN300-395256

> <smiles>
CC1(C)CC=2C=C3C(=O)N(CCN3C2C1)C=4C=C(F)C=C5B(O)OCC54

> <MDLNUMBER>
MFCD32668359

> <IUPAC Name>
10-(6-fluoro-1-hydroxy-1,3-dihydro-2,1-benzoxaborol-4-yl)-4,4-dimethyl-1,10-diazatricyclo[6.4.0.0,2,6]dodeca-2(6),7-dien-9-one

> <CAS>
2189679-92-1

> <URL>
https://www.enaminestore.com/catalog/EN300-395256

> <ROCS_ShapeQuery>
_x0404_0B

> <ROCS_TanimotoCombo>
0.495 

> <ROCS_ShapeTanimoto>
0.418 

> <ROCS_ColorTanimoto>
0.077 

> <ROCS_RefTversky>
0.361 

> <ROCS_RefColorTversky>
0.082 

> <ROCS_RefTverskyCombo>
0.443 

> <ROCS_FitTversky>
1.603 

> <ROCS_FitColorTversky>
0.565 

> <ROCS_FitTverskyCombo>
2.168 

> <ROCS_ColorScore>
-5.936

> <ROCS_Overlap>
2415.188

> <ROCS_Rank>
3                   

$$$$
untitled-dbase-96160_32
  -OEChem-08222312023D

 63 67  0     0  0  0  0  0  0999 V2000
   -8.8862    9.7605  -10.6356 C   0  0  0  0  0  0  0  0  0  0  0  0
   -8.6986   10.0937  -11.9693 C   0  0  0  0  0  0  0  0  0  0  0  0
   -4.8133    5.4316  -19.4114 C   0  0  0  0  0  0  0  0  0  0  0  0
   -8.9158    8.4198  -10.2487 C   0  0  0  0  0  0  0  0  0  0  0  0
   -8.5393    9.0886  -12.9219 C   0  0  0  0  0  0  0  0  0  0  0  0
   -5.7642    4.8405  -20.2432 C   0  0  0  0  0  0  0  0  0  0  0  0
   -5.1669    5.8339  -18.1234 C   0  0  0  0  0  0  0  0  0  0  0  0
   -7.4225    5.0541  -18.4993 C   0  0  0  0  0  0  0  0  0  0  0  0
   -8.7579    7.3840  -11.1887 C   0  0  0  0  0  0  0  0  0  0  0  0
   -8.5663    7.7350  -12.5465 C   0  0  0  0  0  0  0  0  0  0  0  0
   -7.0688    4.6518  -19.7872 C   0  0  0  0  0  0  0  0  0  0  0  0
   -6.4716    5.6452  -17.6674 C   0  0  0  0  0  0  0  0  0  0  0  0
   -8.6163    4.9355  -11.8493 C   0  0  0  0  0  0  0  0  0  0  0  0
   -8.4344    5.2525  -13.1328 C   0  0  0  0  0  0  0  0  0  0  0  0
   -9.2217    2.0095   -7.3055 C   0  0  0  0  0  0  0  0  0  0  0  0
   -9.3181    3.2488   -6.7975 C   0  0  0  0  0  0  0  0  0  0  0  0
   -8.7854    5.9409  -10.8154 C   0  0  0  0  0  0  0  0  0  0  0  0
   -8.3939    6.6671  -13.5812 C   0  0  0  0  0  0  0  0  0  0  0  0
   -8.9602    5.5165   -9.5590 C   0  0  0  0  0  0  0  0  0  0  0  0
   -9.0124    4.1505   -9.0256 C   0  0  0  0  0  0  0  0  0  0  0  0
   -8.9107    2.9018   -9.5687 C   0  0  0  0  0  0  0  0  0  0  0  0
   -9.2740    5.6852   -7.4185 C   0  0  0  0  0  0  0  0  0  0  0  0
   -8.0632    5.9513  -15.7319 C   0  0  0  0  0  0  0  0  0  0  0  0
   -9.4913    7.8270   -6.1953 C   0  0  0  0  0  0  0  0  0  0  0  0
   -8.3451    5.8703   -5.1216 C   0  0  0  0  0  0  0  0  0  0  0  0
  -10.8234    5.8243   -5.4813 C   0  0  0  0  0  0  0  0  0  0  0  0
   -8.0850    4.0198  -20.6769 C   0  0  0  0  0  0  0  0  0  0  0  0
   -9.4810    6.2941   -6.0698 C   0  0  0  0  0  0  0  0  0  0  0  0
   -9.1304    6.4183   -8.5019 N   0  0  0  0  0  0  0  0  0  0  0  0
   -8.2159    6.9792  -14.8258 N   0  0  0  0  0  0  0  0  0  0  0  0
   -9.0230    1.8339   -8.6577 N   0  0  0  0  0  0  0  0  0  0  0  0
   -9.2154    4.3319   -7.6478 N   0  0  0  0  0  0  0  0  0  0  0  0
   -8.7142    2.6301  -10.8944 N   0  0  0  0  0  0  0  0  0  0  0  0
   -6.8296    6.0526  -16.3613 N   0  0  0  0  0  0  0  0  0  0  0  0
   -8.8978    5.0766  -15.9488 O   0  0  0  0  0  0  0  0  0  0  0  0
   -7.5989    3.6772  -21.9067 F   0  0  0  0  0  0  0  0  0  0  0  0
   -8.6146    2.8672  -20.1700 F   0  0  0  0  0  0  0  0  0  0  0  0
   -9.1513    4.8367  -20.9197 F   0  0  0  0  0  0  0  0  0  0  0  0
   -9.0105   10.5422   -9.8918 H   0  0  0  0  0  0  0  0  0  0  0  0
   -8.6756   11.1365  -12.2719 H   0  0  0  0  0  0  0  0  0  0  0  0
   -3.7973    5.5782  -19.7663 H   0  0  0  0  0  0  0  0  0  0  0  0
   -9.0662    8.2176   -9.1924 H   0  0  0  0  0  0  0  0  0  0  0  0
   -8.3940    9.3814  -13.9586 H   0  0  0  0  0  0  0  0  0  0  0  0
   -5.4793    4.5311  -21.2450 H   0  0  0  0  0  0  0  0  0  0  0  0
   -4.4177    6.2937  -17.4839 H   0  0  0  0  0  0  0  0  0  0  0  0
   -8.4408    4.9066  -18.1461 H   0  0  0  0  0  0  0  0  0  0  0  0
   -8.6383    3.8856  -11.5691 H   0  0  0  0  0  0  0  0  0  0  0  0
   -8.3109    4.4770  -13.8810 H   0  0  0  0  0  0  0  0  0  0  0  0
   -9.2893    1.1020   -6.7217 H   0  0  0  0  0  0  0  0  0  0  0  0
   -9.4738    3.4623   -5.7488 H   0  0  0  0  0  0  0  0  0  0  0  0
   -9.6418    8.3038   -5.2195 H   0  0  0  0  0  0  0  0  0  0  0  0
   -8.5469    8.2028   -6.6054 H   0  0  0  0  0  0  0  0  0  0  0  0
  -10.2977    8.1654   -6.8566 H   0  0  0  0  0  0  0  0  0  0  0  0
   -8.4763    6.3061   -4.1241 H   0  0  0  0  0  0  0  0  0  0  0  0
   -7.3700    6.1984   -5.5006 H   0  0  0  0  0  0  0  0  0  0  0  0
   -8.3059    4.7813   -5.0033 H   0  0  0  0  0  0  0  0  0  0  0  0
  -10.9954    6.2602   -4.4900 H   0  0  0  0  0  0  0  0  0  0  0  0
  -10.8498    4.7335   -5.3723 H   0  0  0  0  0  0  0  0  0  0  0  0
  -11.6654    6.1123   -6.1212 H   0  0  0  0  0  0  0  0  0  0  0  0
   -8.9525    0.8924   -9.0229 H   0  0  0  0  0  0  0  0  0  0  0  0
   -8.6553    1.6785  -11.1795 H   0  0  0  0  0  0  0  0  0  0  0  0
   -8.6368    3.3933  -11.5284 H   0  0  0  0  0  0  0  0  0  0  0  0
   -6.0859    6.4754  -15.8107 H   0  0  0  0  0  0  0  0  0  0  0  0
  1  2  2  0  0  0  0
  1  4  1  0  0  0  0
  2  5  1  0  0  0  0
  3  6  2  0  0  0  0
  3  7  1  0  0  0  0
  4  9  2  0  0  0  0
  5 10  2  0  0  0  0
  6 11  1  0  0  0  0
  7 12  2  0  0  0  0
  8 11  2  0  0  0  0
  8 12  1  0  0  0  0
  9 10  1  0  0  0  0
  9 17  1  0  0  0  0
 10 18  1  0  0  0  0
 11 27  1  0  0  0  0
 12 34  1  0  0  0  0
 13 14  2  0  0  0  0
 13 17  1  0  0  0  0
 14 18  1  0  0  0  0
 15 16  2  0  0  0  0
 15 31  1  0  0  0  0
 16 32  1  0  0  0  0
 17 19  2  3  0  0  0
 18 30  2  3  0  0  0
 19 20  1  0  0  0  0
 19 29  1  4  0  0  0
 20 21  2  0  0  0  0
 20 32  1  0  0  0  0
 21 31  1  0  0  0  0
 21 33  1  0  0  0  0
 22 28  1  0  0  0  0
 22 29  2  0  0  0  0
 22 32  1  0  0  0  0
 23 30  1  0  0  0  0
 23 34  1  0  0  0  0
 23 35  2  0  0  0  0
 24 28  1  0  0  0  0
 25 28  1  0  0  0  0
 26 28  1  0  0  0  0
 27 36  1  0  0  0  0
 27 37  1  0  0  0  0
 27 38  1  0  0  0  0
  1 39  1  0  0  0  0
  2 40  1  0  0  0  0
  3 41  1  0  0  0  0
  4 42  1  0  0  0  0
  5 43  1  0  0  0  0
  6 44  1  0  0  0  0
  7 45  1  0  0  0  0
  8 46  1  0  0  0  0
 13 47  1  0  0  0  0
 14 48  1  0  0  0  0
 15 49  1  0  0  0  0
 16 50  1  0  0  0  0
 24 51  1  0  0  0  0
 24 52  1  0  0  0  0
 24 53  1  0  0  0  0
 25 54  1  0  0  0  0
 25 55  1  0  0  0  0
 25 56  1  0  0  0  0
 26 57  1  0  0  0  0
 26 58  1  0  0  0  0
 26 59  1  0  0  0  0
 31 60  1  0  0  0  0
 33 61  1  0  0  0  0
 33 62  1  0  0  0  0
 34 63  1  0  0  0  0
M  END
> <id>
EN300-195606

> <smiles>
CC(C)(C)C1=NC(=C2C=CC(=NC(=O)NC=3C=CC=C(C3)C(F)(F)F)C=4C=CC=CC24)C5=C(N)NC=CN15

> <MDLNUMBER>
MFCD31628975

> <IUPAC Name>
3-(4-{8-amino-3-tert-butyl-1H,7H-imidazo[1,5-a]pyrazin-1-ylidene}-1,4-dihydronaphthalen-1-ylidene)-1-[3-(trifluoromethyl)phenyl]urea

> <CAS>
1589527-65-0

> <Purity>
95

> <URL>
https://www.enaminestore.com/catalog/EN300-195606

> <ROCS_ShapeQuery>
_x0404_0B

> <ROCS_TanimotoCombo>
0.494 

> <ROCS_ShapeTanimoto>
0.397 

> <ROCS_ColorTanimoto>
0.097 

> <ROCS_RefTversky>
0.371 

> <ROCS_RefColorTversky>
0.112 

> <ROCS_RefTverskyCombo>
0.482 

> <ROCS_FitTversky>
1.216 

> <ROCS_FitColorTversky>
0.427 

> <ROCS_FitTverskyCombo>
1.643 

> <ROCS_ColorScore>
-8.122

> <ROCS_Overlap>
2488.266

> <ROCS_Rank>
4                   

$$$$
untitled-dbase-124856_0
  -OEChem-08222312023D

 47 50  0     0  0  0  0  0  0999 V2000
   -7.7560    2.9229  -13.4636 C   0  0  0  0  0  0  0  0  0  0  0  0
   -8.7654    7.7336  -13.0007 C   0  0  0  0  0  0  0  0  0  0  0  0
   -9.2031    2.8760   -6.9702 C   0  0  0  0  0  0  0  0  0  0  0  0
   -9.6084    4.2058   -6.9256 C   0  0  0  0  0  0  0  0  0  0  0  0
   -9.1290    5.2897  -15.5909 C   0  0  0  0  0  0  0  0  0  0  0  0
   -6.7980    5.7757  -15.1822 C   0  0  0  0  0  0  0  0  0  0  0  0
   -8.9205    5.4423  -16.9616 C   0  0  0  0  0  0  0  0  0  0  0  0
   -6.5894    5.9283  -16.5529 C   0  0  0  0  0  0  0  0  0  0  0  0
   -8.7140    2.3252   -8.1557 C   0  0  0  0  0  0  0  0  0  0  0  0
   -9.5224    5.0291   -8.0553 C   0  0  0  0  0  0  0  0  0  0  0  0
   -8.0677    5.4564  -14.7012 C   0  0  0  0  0  0  0  0  0  0  0  0
   -7.6507    5.7616  -17.4426 C   0  0  0  0  0  0  0  0  0  0  0  0
   -8.6274    3.1386   -9.3003 C   0  0  0  0  0  0  0  0  0  0  0  0
   -9.0036    4.4813   -9.2403 C   0  0  0  0  0  0  0  0  0  0  0  0
   -8.3517    3.8845  -11.2868 C   0  0  0  0  0  0  0  0  0  0  0  0
   -8.1303    4.0646  -12.6874 C   0  0  0  0  0  0  0  0  0  0  0  0
   -8.6614    6.4438  -12.3915 C   0  0  0  0  0  0  0  0  0  0  0  0
   -8.2898    5.2939  -13.2402 C   0  0  0  0  0  0  0  0  0  0  0  0
   -8.8761    6.2875  -11.0605 C   0  0  0  0  0  0  0  0  0  0  0  0
   -8.3179    7.0622  -19.4942 C   0  0  0  0  0  0  0  0  0  0  0  0
   -7.7742    4.6115  -19.6807 C   0  0  0  0  0  0  0  0  0  0  0  0
   -5.9638    6.2791  -19.3300 C   0  0  0  0  0  0  0  0  0  0  0  0
   -7.4280    5.9223  -18.9084 C   0  0  0  0  0  0  0  0  0  0  0  0
   -7.4524    1.9968  -14.0928 N   0  0  0  0  0  0  0  0  0  0  0  0
   -8.8495    8.7799  -13.4947 N   0  0  0  0  0  0  0  0  0  0  0  0
   -8.2256    2.7957  -10.5583 N   0  0  0  0  0  0  0  0  0  0  0  0
   -8.7572    4.9824  -10.5210 N   0  0  0  0  0  0  0  0  0  0  0  0
   -9.1672    7.3297  -10.2162 N   0  0  0  0  0  0  0  0  0  0  0  0
   -9.2802    2.2571   -6.0806 H   0  0  0  0  0  0  0  0  0  0  0  0
  -10.0033    4.6143   -5.9989 H   0  0  0  0  0  0  0  0  0  0  0  0
  -10.1245    5.0410  -15.2310 H   0  0  0  0  0  0  0  0  0  0  0  0
   -5.9607    5.9084  -14.5011 H   0  0  0  0  0  0  0  0  0  0  0  0
   -9.7530    5.3101  -17.6476 H   0  0  0  0  0  0  0  0  0  0  0  0
   -5.5969    6.1772  -16.9192 H   0  0  0  0  0  0  0  0  0  0  0  0
   -8.4176    1.2813   -8.1926 H   0  0  0  0  0  0  0  0  0  0  0  0
   -9.8715    6.0514   -7.9844 H   0  0  0  0  0  0  0  0  0  0  0  0
   -8.1732    7.2013  -20.5720 H   0  0  0  0  0  0  0  0  0  0  0  0
   -9.3832    6.8600  -19.3380 H   0  0  0  0  0  0  0  0  0  0  0  0
   -8.0879    8.0141  -19.0011 H   0  0  0  0  0  0  0  0  0  0  0  0
   -7.6119    4.7256  -20.7580 H   0  0  0  0  0  0  0  0  0  0  0  0
   -7.1711    3.7559  -19.3549 H   0  0  0  0  0  0  0  0  0  0  0  0
   -8.8291    4.3516  -19.5326 H   0  0  0  0  0  0  0  0  0  0  0  0
   -5.8509    6.3866  -20.4156 H   0  0  0  0  0  0  0  0  0  0  0  0
   -5.6479    7.2268  -18.8785 H   0  0  0  0  0  0  0  0  0  0  0  0
   -5.2645    5.4980  -19.0096 H   0  0  0  0  0  0  0  0  0  0  0  0
   -9.3103    7.1283   -9.2546 H   0  0  0  0  0  0  0  0  0  0  0  0
   -9.2231    8.2433  -10.6007 H   0  0  0  0  0  0  0  0  0  0  0  0
  1 16  1  0  0  0  0
  1 24  3  0  0  0  0
  2 17  1  0  0  0  0
  2 25  3  0  0  0  0
  3  4  2  0  0  0  0
  3  9  1  0  0  0  0
  4 10  1  0  0  0  0
  5  7  1  0  0  0  0
  5 11  2  0  0  0  0
  6  8  2  0  0  0  0
  6 11  1  0  0  0  0
  7 12  2  0  0  0  0
  8 12  1  0  0  0  0
  9 13  2  0  0  0  0
 10 14  2  0  0  0  0
 11 18  1  0  0  0  0
 12 23  1  0  0  0  0
 13 14  1  0  0  0  0
 13 26  1  0  0  0  0
 14 27  1  0  0  0  0
 15 16  1  0  0  0  0
 15 26  2  0  0  0  0
 15 27  1  0  0  0  0
 16 18  2  0  0  0  0
 17 18  1  0  0  0  0
 17 19  2  0  0  0  0
 19 27  1  0  0  0  0
 19 28  1  0  0  0  0
 20 23  1  0  0  0  0
 21 23  1  0  0  0  0
 22 23  1  0  0  0  0
  3 29  1  0  0  0  0
  4 30  1  0  0  0  0
  5 31  1  0  0  0  0
  6 32  1  0  0  0  0
  7 33  1  0  0  0  0
  8 34  1  0  0  0  0
  9 35  1  0  0  0  0
 10 36  1  0  0  0  0
 20 37  1  0  0  0  0
 20 38  1  0  0  0  0
 20 39  1  0  0  0  0
 21 40  1  0  0  0  0
 21 41  1  0  0  0  0
 21 42  1  0  0  0  0
 22 43  1  0  0  0  0
 22 44  1  0  0  0  0
 22 45  1  0  0  0  0
 28 46  1  0  0  0  0
 28 47  1  0  0  0  0
M  END
> <id>
EN300-02858

> <smiles>
CC(C)(C)C=1C=CC(=CC1)C=2C(C#N)=C(N)N3C=4C=CC=CC4N=C3C2C#N

> <MDLNUMBER>
MFCD06660644

> <IUPAC Name>
13-amino-11-(4-tert-butylphenyl)-1,8-diazatricyclo[7.4.0.0,2,7]trideca-2(7),3,5,8,10,12-hexaene-10,12-dicarbonitrile

> <CAS>
885458-42-4

> <URL>
https://www.enaminestore.com/catalog/EN300-02858

> <ROCS_ShapeQuery>
_x0404_0B

> <ROCS_TanimotoCombo>
0.492 

> <ROCS_ShapeTanimoto>
0.404 

> <ROCS_ColorTanimoto>
0.088 

> <ROCS_RefTversky>
0.356 

> <ROCS_RefColorTversky>
0.097 

> <ROCS_RefTverskyCombo>
0.453 

> <ROCS_FitTversky>
1.504 

> <ROCS_FitColorTversky>
0.491 

> <ROCS_FitTverskyCombo>
1.995 

> <ROCS_ColorScore>
-7.005

> <ROCS_Overlap>
2382.724

> <ROCS_Rank>
5                   

$$$$
untitled-dbase-103707_306
  -OEChem-08222312023D

 62 65  0     1  0  0  0  0  0999 V2000
   -8.5816    4.1541   -9.5620 B   0  0  0  0  0  0  0  0  0  0  0  0
   -8.6489    5.9320  -14.5942 C   0  0  0  0  0  0  0  0  0  0  0  0
   -5.4786    6.0518  -17.8837 C   0  0  0  0  0  0  0  0  0  0  0  0
   -6.1545    5.9234  -16.5164 C   0  0  0  0  0  0  0  0  0  0  0  0
   -6.4915    5.5510  -18.9121 C   0  0  0  0  0  0  0  0  0  0  0  0
   -9.9816    3.6406  -16.9831 C   0  0  0  0  0  0  0  0  0  0  0  0
   -7.2856    4.1542  -11.9228 C   0  0  0  0  0  0  0  0  0  0  0  0
   -8.4163    6.3010  -11.1826 C   0  0  0  0  0  0  0  0  0  0  0  0
   -8.9271    3.7584  -15.8693 C   0  0  0  0  0  0  0  0  0  0  0  0
   -8.3620    3.9885  -13.0040 C   0  0  0  0  0  0  0  0  0  0  0  0
   -9.4724    6.0715  -12.2648 C   0  0  0  0  0  0  0  0  0  0  0  0
   -9.9705    4.7109  -18.0727 C   0  0  0  0  0  0  0  0  0  0  0  0
   -7.7733    4.9787  -10.7119 C   0  0  0  0  0  0  0  0  0  0  0  0
   -7.6356    5.6996  -16.8295 C   0  0  1  0  0  0  0  0  0  0  0  0
   -7.5717    4.8434  -18.0969 C   0  0  1  0  0  0  0  0  0  0  0  0
   -9.4875    3.6375   -7.5250 C   0  0  0  0  0  0  0  0  0  0  0  0
   -9.8002    2.5000   -8.5544 C   0  0  0  0  0  0  0  0  0  0  0  0
  -10.7092    4.1586   -6.7551 C   0  0  0  0  0  0  0  0  0  0  0  0
   -8.3884    3.2961   -6.4938 C   0  0  0  0  0  0  0  0  0  0  0  0
  -11.2542    2.4788   -9.0775 C   0  0  0  0  0  0  0  0  0  0  0  0
   -9.4538    1.0847   -8.0703 C   0  0  0  0  0  0  0  0  0  0  0  0
   -8.9275    5.2930  -13.3767 N   0  0  0  0  0  0  0  0  0  0  0  0
   -8.3602    5.1059  -15.6972 N   0  0  0  0  0  0  0  0  0  0  0  0
   -8.6471    7.1657  -14.6900 O   0  0  0  0  0  0  0  0  0  0  0  0
   -8.9729    4.7287   -8.3547 O   0  0  0  0  0  0  0  0  0  0  0  0
   -8.9383    2.8142   -9.6958 O   0  0  0  0  0  0  0  0  0  0  0  0
   -8.7750    4.7795  -18.8409 O   0  0  0  0  0  0  0  0  0  0  0  0
   -5.1924    7.0878  -18.0955 H   0  0  0  0  0  0  0  0  0  0  0  0
   -4.5644    5.4477  -17.9109 H   0  0  0  0  0  0  0  0  0  0  0  0
   -5.7306    5.0640  -15.9876 H   0  0  0  0  0  0  0  0  0  0  0  0
   -5.9873    6.8127  -15.9063 H   0  0  0  0  0  0  0  0  0  0  0  0
   -6.9153    6.3957  -19.4703 H   0  0  0  0  0  0  0  0  0  0  0  0
   -6.0341    4.8846  -19.6510 H   0  0  0  0  0  0  0  0  0  0  0  0
   -9.8354    2.6574  -17.4814 H   0  0  0  0  0  0  0  0  0  0  0  0
  -10.9936    3.5783  -16.5235 H   0  0  0  0  0  0  0  0  0  0  0  0
   -6.9564    3.1541  -11.5922 H   0  0  0  0  0  0  0  0  0  0  0  0
   -6.4002    4.6271  -12.3796 H   0  0  0  0  0  0  0  0  0  0  0  0
   -7.6513    6.9816  -11.5733 H   0  0  0  0  0  0  0  0  0  0  0  0
   -8.8856    6.8097  -10.3313 H   0  0  0  0  0  0  0  0  0  0  0  0
   -9.4314    3.4550  -14.9402 H   0  0  0  0  0  0  0  0  0  0  0  0
   -8.0990    3.0490  -16.0265 H   0  0  0  0  0  0  0  0  0  0  0  0
   -7.9288    3.5519  -13.9071 H   0  0  0  0  0  0  0  0  0  0  0  0
   -9.1478    3.3185  -12.6518 H   0  0  0  0  0  0  0  0  0  0  0  0
  -10.3221    5.5638  -11.7971 H   0  0  0  0  0  0  0  0  0  0  0  0
   -9.8249    7.0303  -12.6679 H   0  0  0  0  0  0  0  0  0  0  0  0
  -10.8370    4.5996  -18.7484 H   0  0  0  0  0  0  0  0  0  0  0  0
  -10.0898    5.6966  -17.5941 H   0  0  0  0  0  0  0  0  0  0  0  0
   -6.8475    5.2822  -10.1763 H   0  0  0  0  0  0  0  0  0  0  0  0
   -8.1245    6.6509  -17.0566 H   0  0  0  0  0  0  0  0  0  0  0  0
   -7.1917    3.8079  -17.8752 H   0  0  0  0  0  0  0  0  0  0  0  0
  -10.3891    4.9370   -6.0738 H   0  0  0  0  0  0  0  0  0  0  0  0
  -11.1505    3.3397   -6.2010 H   0  0  0  0  0  0  0  0  0  0  0  0
  -11.4262    4.5567   -7.4622 H   0  0  0  0  0  0  0  0  0  0  0  0
   -8.2436    4.1413   -5.8272 H   0  0  0  0  0  0  0  0  0  0  0  0
   -7.4596    3.0809   -7.0139 H   0  0  0  0  0  0  0  0  0  0  0  0
   -8.6916    2.4270   -5.9173 H   0  0  0  0  0  0  0  0  0  0  0  0
  -11.3728    1.6602   -9.7813 H   0  0  0  0  0  0  0  0  0  0  0  0
  -11.4727    3.4194   -9.5746 H   0  0  0  0  0  0  0  0  0  0  0  0
  -11.9360    2.3421   -8.2433 H   0  0  0  0  0  0  0  0  0  0  0  0
   -9.7059    0.3759   -8.8490 H   0  0  0  0  0  0  0  0  0  0  0  0
  -10.0244    0.8706   -7.1753 H   0  0  0  0  0  0  0  0  0  0  0  0
   -8.3938    1.0373   -7.8546 H   0  0  0  0  0  0  0  0  0  0  0  0
  1 13  1  0  0  0  0
  1 25  1  0  0  0  0
  1 26  1  0  0  0  0
  2 22  1  0  0  0  0
  2 23  1  0  0  0  0
  2 24  2  0  0  0  0
  3  4  1  0  0  0  0
  3  5  1  0  0  0  0
  4 14  1  0  0  0  0
  5 15  1  0  0  0  0
  6  9  1  0  0  0  0
  6 12  1  0  0  0  0
  7 10  1  0  0  0  0
  7 13  1  0  0  0  0
  8 11  1  0  0  0  0
  8 13  1  0  0  0  0
  9 23  1  0  0  0  0
 10 22  1  0  0  0  0
 11 22  1  0  0  0  0
 12 27  1  0  0  0  0
 14 15  1  0  0  0  0
 14 23  1  0  0  0  0
 15 27  1  0  0  0  0
 16 17  1  0  0  0  0
 16 18  1  0  0  0  0
 16 19  1  0  0  0  0
 16 25  1  0  0  0  0
 17 20  1  0  0  0  0
 17 21  1  0  0  0  0
 17 26  1  0  0  0  0
  3 28  1  0  0  0  0
  3 29  1  0  0  0  0
  4 30  1  0  0  0  0
  4 31  1  0  0  0  0
  5 32  1  0  0  0  0
  5 33  1  0  0  0  0
  6 34  1  0  0  0  0
  6 35  1  0  0  0  0
  7 36  1  0  0  0  0
  7 37  1  0  0  0  0
  8 38  1  0  0  0  0
  8 39  1  0  0  0  0
  9 40  1  0  0  0  0
  9 41  1  0  0  0  0
 10 42  1  0  0  0  0
 10 43  1  0  0  0  0
 11 44  1  0  0  0  0
 11 45  1  0  0  0  0
 12 46  1  0  0  0  0
 12 47  1  0  0  0  0
 13 48  1  0  0  0  0
 14 49  1  0  0  0  0
 15 50  1  0  0  0  0
 18 51  1  0  0  0  0
 18 52  1  0  0  0  0
 18 53  1  0  0  0  0
 19 54  1  0  0  0  0
 19 55  1  0  0  0  0
 19 56  1  0  0  0  0
 20 57  1  0  0  0  0
 20 58  1  0  0  0  0
 20 59  1  0  0  0  0
 21 60  1  0  0  0  0
 21 61  1  0  0  0  0
 21 62  1  0  0  0  0
M  END
> <id>
EN300-6735300

> <smiles>
CC1(C)OB(OC1(C)C)C2CCN(CC2)C(=O)N3CCCOC4CCCC43

> <IUPAC Name>
1-{octahydro-2H-cyclopenta[b][1,4]oxazepine-5-carbonyl}-4-(4,4,5,5-tetramethyl-1,3,2-dioxaborolan-2-yl)piperidine

> <URL>
https://www.enaminestore.com/catalog/EN300-6735300

> <ROCS_ShapeQuery>
_x0404_0B

> <ROCS_TanimotoCombo>
0.490 

> <ROCS_ShapeTanimoto>
0.417 

> <ROCS_ColorTanimoto>
0.073 

> <ROCS_RefTversky>
0.360 

> <ROCS_RefColorTversky>
0.079 

> <ROCS_RefTverskyCombo>
0.439 

> <ROCS_FitTversky>
1.623 

> <ROCS_FitColorTversky>
0.500 

> <ROCS_FitTverskyCombo>
2.123 

> <ROCS_ColorScore>
-5.693

> <ROCS_Overlap>
2404.507

> <ROCS_Rank>
6                   

$$$$
untitled-dbase-106236_0
  -OEChem-08222312023D

 46 50  0     0  0  0  0  0  0999 V2000
   -6.1684    5.4586  -18.6641 B   0  0  0  0  0  0  0  0  0  0  0  0
   -9.9119    4.2776  -18.5176 C   0  0  0  0  0  0  0  0  0  0  0  0
   -8.7301    4.6203  -19.1832 C   0  0  0  0  0  0  0  0  0  0  0  0
   -9.9865    4.3213  -17.1180 C   0  0  0  0  0  0  0  0  0  0  0  0
   -8.7373    6.8033  -11.7714 C   0  0  0  0  0  0  0  0  0  0  0  0
   -7.6382    5.0029  -18.4385 C   0  0  0  0  0  0  0  0  0  0  0  0
   -8.7718    6.1364  -10.5384 C   0  0  0  0  0  0  0  0  0  0  0  0
   -7.7057    5.0504  -17.0255 C   0  0  0  0  0  0  0  0  0  0  0  0
   -8.8797    4.7094  -16.3619 C   0  0  0  0  0  0  0  0  0  0  0  0
   -8.7737    5.8186  -12.7585 C   0  0  0  0  0  0  0  0  0  0  0  0
   -8.8207    4.7954  -10.7876 C   0  0  0  0  0  0  0  0  0  0  0  0
   -8.7537    5.9593  -14.2042 C   0  0  0  0  0  0  0  0  0  0  0  0
   -8.7669    6.4241   -9.0903 C   0  0  0  0  0  0  0  0  0  0  0  0
   -6.4350    5.4876  -16.3654 C   0  0  0  0  0  0  0  0  0  0  0  0
   -8.8501    3.9268   -9.5986 C   0  0  0  0  0  0  0  0  0  0  0  0
   -8.8300    3.3533  -12.8485 C   0  0  0  0  0  0  0  0  0  0  0  0
   -9.4707    3.5517  -14.2186 C   0  0  0  0  0  0  0  0  0  0  0  0
   -8.5289    4.9828   -8.4547 C   0  0  0  0  0  0  0  0  0  0  0  0
   -7.0590    4.8454   -8.0207 C   0  0  0  0  0  0  0  0  0  0  0  0
   -9.4404    4.7664   -7.2438 C   0  0  0  0  0  0  0  0  0  0  0  0
   -8.8176    4.5957  -12.1188 N   0  0  0  0  0  0  0  0  0  0  0  0
   -8.9683    4.7522  -14.9231 N   0  0  0  0  0  0  0  0  0  0  0  0
   -8.5897    7.0619  -14.7232 O   0  0  0  0  0  0  0  0  0  0  0  0
   -5.5159    5.7253  -17.4619 O   0  0  0  0  0  0  0  0  0  0  0  0
   -5.5892    5.5819  -19.8921 O   0  0  0  0  0  0  0  0  0  0  0  0
  -10.7833    3.9728  -19.0915 H   0  0  0  0  0  0  0  0  0  0  0  0
   -8.6893    4.5799  -20.2674 H   0  0  0  0  0  0  0  0  0  0  0  0
  -10.9196    4.0491  -16.6302 H   0  0  0  0  0  0  0  0  0  0  0  0
   -8.6927    7.8696  -11.9445 H   0  0  0  0  0  0  0  0  0  0  0  0
   -7.9785    7.1309   -8.8137 H   0  0  0  0  0  0  0  0  0  0  0  0
   -9.7362    6.8362   -8.7885 H   0  0  0  0  0  0  0  0  0  0  0  0
   -6.5638    6.4206  -15.8051 H   0  0  0  0  0  0  0  0  0  0  0  0
   -6.0184    4.7062  -15.7198 H   0  0  0  0  0  0  0  0  0  0  0  0
   -9.8458    3.4885   -9.4731 H   0  0  0  0  0  0  0  0  0  0  0  0
   -8.1057    3.1269   -9.6454 H   0  0  0  0  0  0  0  0  0  0  0  0
   -9.3862    2.6108  -12.2676 H   0  0  0  0  0  0  0  0  0  0  0  0
   -7.7892    3.0248  -12.9442 H   0  0  0  0  0  0  0  0  0  0  0  0
   -9.2998    2.6661  -14.8414 H   0  0  0  0  0  0  0  0  0  0  0  0
  -10.5539    3.6882  -14.1062 H   0  0  0  0  0  0  0  0  0  0  0  0
   -6.9040    3.8621   -7.5890 H   0  0  0  0  0  0  0  0  0  0  0  0
   -6.8309    5.6082   -7.2837 H   0  0  0  0  0  0  0  0  0  0  0  0
   -6.4173    4.9699   -8.8866 H   0  0  0  0  0  0  0  0  0  0  0  0
   -9.2631    3.7786   -6.8249 H   0  0  0  0  0  0  0  0  0  0  0  0
  -10.4807    4.8453   -7.5508 H   0  0  0  0  0  0  0  0  0  0  0  0
   -9.2300    5.5203   -6.4887 H   0  0  0  0  0  0  0  0  0  0  0  0
   -6.2062    5.3505  -20.6089 H   0  0  0  0  0  0  0  0  0  0  0  0
  1  6  1  0  0  0  0
  1 24  1  0  0  0  0
  1 25  1  0  0  0  0
  2  3  2  0  0  0  0
  2  4  1  0  0  0  0
  3  6  1  0  0  0  0
  4  9  2  0  0  0  0
  5  7  1  0  0  0  0
  5 10  2  0  0  0  0
  6  8  2  0  0  0  0
  7 11  2  0  0  0  0
  7 13  1  0  0  0  0
  8  9  1  0  0  0  0
  8 14  1  0  0  0  0
  9 22  1  0  0  0  0
 10 12  1  0  0  0  0
 10 21  1  0  0  0  0
 11 15  1  0  0  0  0
 11 21  1  0  0  0  0
 12 22  1  0  0  0  0
 12 23  2  0  0  0  0
 13 18  1  0  0  0  0
 14 24  1  0  0  0  0
 15 18  1  0  0  0  0
 16 17  1  0  0  0  0
 16 21  1  0  0  0  0
 17 22  1  0  0  0  0
 18 19  1  0  0  0  0
 18 20  1  0  0  0  0
  2 26  1  0  0  0  0
  3 27  1  0  0  0  0
  4 28  1  0  0  0  0
  5 29  1  0  0  0  0
 13 30  1  0  0  0  0
 13 31  1  0  0  0  0
 14 32  1  0  0  0  0
 14 33  1  0  0  0  0
 15 34  1  0  0  0  0
 15 35  1  0  0  0  0
 16 36  1  0  0  0  0
 16 37  1  0  0  0  0
 17 38  1  0  0  0  0
 17 39  1  0  0  0  0
 19 40  1  0  0  0  0
 19 41  1  0  0  0  0
 19 42  1  0  0  0  0
 20 43  1  0  0  0  0
 20 44  1  0  0  0  0
 20 45  1  0  0  0  0
 25 46  1  0  0  0  0
M  END
> <id>
EN300-385292

> <smiles>
CC1(C)CC=2C=C3C(=O)N(CCN3C2C1)C=4C=CC=C5B(O)OCC54

> <MDLNUMBER>
MFCD32668358

> <IUPAC Name>
10-(1-hydroxy-1,3-dihydro-2,1-benzoxaborol-4-yl)-4,4-dimethyl-1,10-diazatricyclo[6.4.0.0,2,6]dodeca-2(6),7-dien-9-one

> <CAS>
1895867-78-3

> <URL>
https://www.enaminestore.com/catalog/EN300-385292

> <ROCS_ShapeQuery>
_x0404_0B

> <ROCS_TanimotoCombo>
0.490 

> <ROCS_ShapeTanimoto>
0.413 

> <ROCS_ColorTanimoto>
0.077 

> <ROCS_RefTversky>
0.356 

> <ROCS_RefColorTversky>
0.082 

> <ROCS_RefTverskyCombo>
0.438 

> <ROCS_FitTversky>
1.628 

> <ROCS_FitColorTversky>
0.565 

> <ROCS_FitTverskyCombo>
2.193 

> <ROCS_ColorScore>
-5.935

> <ROCS_Overlap>
2379.620

> <ROCS_Rank>
7                   

$$$$
untitled-dbase-150024_6
  -OEChem-08222312023D

 80 84  0     1  0  0  0  0  0999 V2000
   -8.2308    3.0435  -12.0096 C   0  0  0  0  0  0  0  0  0  0  0  0
   -8.7148    4.0366  -11.2421 C   0  0  0  0  0  0  0  0  0  0  0  0
   -7.9449    3.1974  -13.4585 C   0  0  0  0  0  0  0  0  0  0  0  0
   -9.0414    0.8050   -7.3077 C   0  0  0  0  0  0  0  0  0  0  0  0
   -7.9238    7.1957  -15.2752 C   0  0  0  0  0  0  0  0  0  0  0  0
   -9.2136    3.9621  -17.8086 C   0  0  0  0  0  0  0  0  0  0  0  0
   -8.5219    6.5369  -10.7207 C   0  0  0  0  0  0  0  0  0  0  0  0
   -9.0284    3.2148   -6.8517 C   0  0  0  0  0  0  0  0  0  0  0  0
   -8.4743    7.0316  -13.8580 C   0  0  0  0  0  0  0  0  0  0  0  0
   -8.5738    3.5135  -16.4904 C   0  0  0  0  0  0  0  0  0  0  0  0
   -9.0018    6.2465   -9.2980 C   0  0  0  0  0  0  0  0  0  0  0  0
   -9.1981    4.6341   -7.3930 C   0  0  0  0  0  0  0  0  0  0  0  0
   -8.9701    2.3474   -9.2430 C   0  0  0  0  0  0  0  0  0  0  0  0
   -9.1655    3.7862   -9.7867 C   0  0  1  0  0  0  0  0  0  0  0  0
   -8.3510    4.5066  -14.1386 C   0  0  2  0  0  0  0  0  0  0  0  0
   -8.3886    6.0390  -16.1837 C   0  0  2  0  0  0  0  0  0  0  0  0
   -8.3797    4.9935  -18.5601 C   0  0  1  0  0  0  0  0  0  0  0  0
   -8.9267    5.4706  -11.7916 C   0  0  1  0  0  0  0  0  0  0  0  0
   -9.5346    2.1358   -7.8209 C   0  0  1  0  0  0  0  0  0  0  0  0
   -8.5866    4.8406   -8.8025 C   0  0  1  0  0  0  0  0  0  0  0  0
   -7.8846    4.6511  -15.6534 C   0  0  2  0  0  0  0  0  0  0  0  0
   -8.0718    5.7024  -13.1628 C   0  0  2  0  0  0  0  0  0  0  0  0
   -8.1788    6.3028  -17.7293 C   0  0  0  0  0  0  0  0  0  0  0  0
  -10.4600    5.6302  -12.0291 C   0  0  0  0  0  0  0  0  0  0  0  0
  -11.0705    2.0821   -7.8349 C   0  0  0  0  0  0  0  0  0  0  0  0
   -7.0440    4.7542   -8.6998 C   0  0  0  0  0  0  0  0  0  0  0  0
   -6.3515    4.4983  -15.8186 C   0  0  0  0  0  0  0  0  0  0  0  0
   -6.5518    5.7966  -12.8252 C   0  0  0  0  0  0  0  0  0  0  0  0
   -6.8330    6.9811  -18.0600 C   0  0  0  0  0  0  0  0  0  0  0  0
   -9.2872    7.2962  -18.1865 C   0  0  0  0  0  0  0  0  0  0  0  0
   -7.4700    2.2352  -14.0589 O   0  0  0  0  0  0  0  0  0  0  0  0
   -9.3101    0.3314   -6.2136 O   0  0  0  0  0  0  0  0  0  0  0  0
   -8.2514    0.1999   -8.2281 O   0  0  0  0  0  0  0  0  0  0  0  0
   -7.1521    4.3715  -18.9312 O   0  0  0  0  0  0  0  0  0  0  0  0
   -8.0628    2.0436  -11.6271 H   0  0  0  0  0  0  0  0  0  0  0  0
   -8.2976    8.1568  -15.6462 H   0  0  0  0  0  0  0  0  0  0  0  0
   -6.8328    7.2918  -15.2579 H   0  0  0  0  0  0  0  0  0  0  0  0
   -9.4314    3.1011  -18.4559 H   0  0  0  0  0  0  0  0  0  0  0  0
  -10.2051    4.3910  -17.5941 H   0  0  0  0  0  0  0  0  0  0  0  0
   -8.8999    7.5235  -11.0173 H   0  0  0  0  0  0  0  0  0  0  0  0
   -7.4382    6.6488  -10.6568 H   0  0  0  0  0  0  0  0  0  0  0  0
   -7.9705    3.0461   -6.6137 H   0  0  0  0  0  0  0  0  0  0  0  0
   -9.5528    3.1339   -5.8902 H   0  0  0  0  0  0  0  0  0  0  0  0
   -8.1578    7.8902  -13.2549 H   0  0  0  0  0  0  0  0  0  0  0  0
   -9.5614    7.1061  -13.9453 H   0  0  0  0  0  0  0  0  0  0  0  0
   -9.3589    3.0394  -15.8807 H   0  0  0  0  0  0  0  0  0  0  0  0
   -7.8575    2.7154  -16.7256 H   0  0  0  0  0  0  0  0  0  0  0  0
   -8.5976    7.0146   -8.6256 H   0  0  0  0  0  0  0  0  0  0  0  0
  -10.0928    6.3561   -9.2548 H   0  0  0  0  0  0  0  0  0  0  0  0
  -10.2688    4.8755   -7.4159 H   0  0  0  0  0  0  0  0  0  0  0  0
   -8.7486    5.3403   -6.6824 H   0  0  0  0  0  0  0  0  0  0  0  0
   -9.4571    1.6289   -9.9171 H   0  0  0  0  0  0  0  0  0  0  0  0
   -7.9024    2.0890   -9.2541 H   0  0  0  0  0  0  0  0  0  0  0  0
  -10.2543    3.9269   -9.8051 H   0  0  0  0  0  0  0  0  0  0  0  0
   -9.4478    4.4144  -14.2232 H   0  0  0  0  0  0  0  0  0  0  0  0
   -9.4824    6.0130  -16.0759 H   0  0  0  0  0  0  0  0  0  0  0  0
   -8.9190    5.2375  -19.4862 H   0  0  0  0  0  0  0  0  0  0  0  0
  -10.6396    6.6216  -12.4129 H   0  0  0  0  0  0  0  0  0  0  0  0
  -10.9629    5.4893  -11.0859 H   0  0  0  0  0  0  0  0  0  0  0  0
  -10.7696    4.8831  -12.7421 H   0  0  0  0  0  0  0  0  0  0  0  0
  -11.4599    3.0272   -8.2003 H   0  0  0  0  0  0  0  0  0  0  0  0
  -11.4331    1.9040   -6.8274 H   0  0  0  0  0  0  0  0  0  0  0  0
  -11.3961    1.2775   -8.4869 H   0  0  0  0  0  0  0  0  0  0  0  0
   -6.7734    3.7661   -8.3525 H   0  0  0  0  0  0  0  0  0  0  0  0
   -6.6996    5.5031   -7.9993 H   0  0  0  0  0  0  0  0  0  0  0  0
   -6.6197    4.9351   -9.6782 H   0  0  0  0  0  0  0  0  0  0  0  0
   -5.8619    5.2753  -15.2475 H   0  0  0  0  0  0  0  0  0  0  0  0
   -6.1044    4.5932  -16.8671 H   0  0  0  0  0  0  0  0  0  0  0  0
   -6.0585    3.5240  -15.4520 H   0  0  0  0  0  0  0  0  0  0  0  0
   -6.2581    4.8792  -12.3414 H   0  0  0  0  0  0  0  0  0  0  0  0
   -6.4056    6.6387  -12.1686 H   0  0  0  0  0  0  0  0  0  0  0  0
   -6.0111    5.9325  -13.7476 H   0  0  0  0  0  0  0  0  0  0  0  0
   -6.7633    7.1278  -19.1318 H   0  0  0  0  0  0  0  0  0  0  0  0
   -6.0225    6.3450  -17.7226 H   0  0  0  0  0  0  0  0  0  0  0  0
   -6.7842    7.9385  -17.5539 H   0  0  0  0  0  0  0  0  0  0  0  0
   -9.1594    7.4882  -19.2412 H   0  0  0  0  0  0  0  0  0  0  0  0
   -9.1814    8.2094  -17.6205 H   0  0  0  0  0  0  0  0  0  0  0  0
  -10.2494    6.8439  -17.9984 H   0  0  0  0  0  0  0  0  0  0  0  0
   -7.9187   -0.6672   -7.9120 H   0  0  0  0  0  0  0  0  0  0  0  0
   -7.3862    3.6188  -19.4948 H   0  0  0  0  0  0  0  0  0  0  0  0
  1  2  2  0  0  0  0
  1  3  1  0  0  0  0
  2 14  1  0  0  0  0
  2 18  1  0  0  0  0
  3 15  1  1  0  0  0
  3 31  2  0  0  0  0
  4 19  1  0  0  0  0
  4 32  2  0  0  0  0
  4 33  1  0  0  0  0
  5  9  1  0  0  0  0
  5 16  1  1  0  0  0
  6 10  1  0  0  0  0
  6 17  1  0  0  0  0
  7 11  1  0  0  0  0
  7 18  1  0  0  0  0
  8 12  1  0  0  0  0
  8 19  1  0  0  0  0
  9 22  1  0  0  0  0
 10 21  1  0  0  0  0
 11 20  1  0  0  0  0
 12 20  1  0  0  0  0
 13 14  1  1  0  0  0
 13 19  1  0  0  0  0
 14 20  1  0  0  0  0
 15 21  1  0  0  0  0
 15 22  1  0  0  0  0
 16 21  1  0  0  0  0
 16 23  1  0  0  0  0
 17 23  1  0  0  0  0
 17 34  1  1  0  0  0
 18 22  1  0  0  0  0
 18 24  1  6  0  0  0
 19 25  1  6  0  0  0
 20 26  1  1  0  0  0
 21 27  1  1  0  0  0
 22 28  1  1  0  0  0
 23 29  1  0  0  0  0
 23 30  1  0  0  0  0
  1 35  1  0  0  0  0
  5 36  1  0  0  0  0
  5 37  1  0  0  0  0
  6 38  1  0  0  0  0
  6 39  1  0  0  0  0
  7 40  1  0  0  0  0
  7 41  1  0  0  0  0
  8 42  1  0  0  0  0
  8 43  1  0  0  0  0
  9 44  1  0  0  0  0
  9 45  1  0  0  0  0
 10 46  1  0  0  0  0
 10 47  1  0  0  0  0
 11 48  1  0  0  0  0
 11 49  1  0  0  0  0
 12 50  1  0  0  0  0
 12 51  1  0  0  0  0
 13 52  1  0  0  0  0
 13 53  1  0  0  0  0
 14 54  1  0  0  0  0
 15 55  1  0  0  0  0
 16 56  1  0  0  0  0
 17 57  1  0  0  0  0
 24 58  1  0  0  0  0
 24 59  1  0  0  0  0
 24 60  1  0  0  0  0
 25 61  1  0  0  0  0
 25 62  1  0  0  0  0
 25 63  1  0  0  0  0
 26 64  1  0  0  0  0
 26 65  1  0  0  0  0
 26 66  1  0  0  0  0
 27 67  1  0  0  0  0
 27 68  1  0  0  0  0
 27 69  1  0  0  0  0
 28 70  1  0  0  0  0
 28 71  1  0  0  0  0
 28 72  1  0  0  0  0
 29 73  1  0  0  0  0
 29 74  1  0  0  0  0
 29 75  1  0  0  0  0
 30 76  1  0  0  0  0
 30 77  1  0  0  0  0
 30 78  1  0  0  0  0
 33 79  1  0  0  0  0
 34 80  1  0  0  0  0
M  END
> <id>
EN300-7412762

> <smiles>
CC1(C)[C@@H](O)CC[C@@]2(C)[C@H]1CC[C@]3(C)[C@@H]2C(=O)C=C4[C@H]5C[C@](C)(CC[C@]5(C)CC[C@]43C)C(=O)O

> <MDLNUMBER>
MFCD00064897

> <IUPAC Name>
(2S,4aS,6aS,6bR,8aR,10S,12aS,12bR,14bS)-10-hydroxy-2,4a,6a,6b,9,9,12a-heptamethyl-13-oxo-1,2,3,4,4a,5,6,6a,6b,7,8,8a,9,10,11,12,12a,12b,13,14b-icosahydropicene-2-carboxylic acid

> <CAS>
1449-05-4

> <Purity>
95

> <URL>
https://www.enaminestore.com/catalog/EN300-7412762

> <MP>
284-289

> <ROCS_ShapeQuery>
_x0404_0B

> <ROCS_TanimotoCombo>
0.490 

> <ROCS_ShapeTanimoto>
0.413 

> <ROCS_ColorTanimoto>
0.077 

> <ROCS_RefTversky>
0.370 

> <ROCS_RefColorTversky>
0.087 

> <ROCS_RefTverskyCombo>
0.456 

> <ROCS_FitTversky>
1.395 

> <ROCS_FitColorTversky>
0.413 

> <ROCS_FitTverskyCombo>
1.808 

> <ROCS_ColorScore>
-6.283

> <ROCS_Overlap>
2476.376

> <ROCS_Rank>
8                   

$$$$
untitled-dbase-83461_1
  -OEChem-08222312023D

 41 45  0     0  0  0  0  0  0999 V2000
   -9.1463    4.4566   -6.8196 C   0  0  0  0  0  0  0  0  0  0  0  0
   -9.0429    3.0801   -6.6307 C   0  0  0  0  0  0  0  0  0  0  0  0
   -9.5175    5.4691  -16.4881 C   0  0  0  0  0  0  0  0  0  0  0  0
   -9.0684    4.9929   -8.1049 C   0  0  0  0  0  0  0  0  0  0  0  0
   -8.8612    2.2347   -7.7259 C   0  0  0  0  0  0  0  0  0  0  0  0
   -9.3498    4.9943  -17.7889 C   0  0  0  0  0  0  0  0  0  0  0  0
   -7.1221    5.6839  -16.2577 C   0  0  0  0  0  0  0  0  0  0  0  0
   -8.7189    7.6577  -14.1587 C   0  0  0  0  0  0  0  0  0  0  0  0
   -8.4036    5.8139  -15.7225 C   0  0  0  0  0  0  0  0  0  0  0  0
   -8.5770    6.3056  -14.3801 C   0  0  0  0  0  0  0  0  0  0  0  0
   -8.8863    4.1459   -9.2047 C   0  0  0  0  0  0  0  0  0  0  0  0
   -8.7834    2.7733   -9.0136 C   0  0  0  0  0  0  0  0  0  0  0  0
   -8.6282    5.5633  -13.1662 C   0  0  0  0  0  0  0  0  0  0  0  0
   -8.0683    4.8643  -18.3241 C   0  0  0  0  0  0  0  0  0  0  0  0
   -6.9544    5.2091  -17.5585 C   0  0  0  0  0  0  0  0  0  0  0  0
   -8.8067    6.3713  -12.0615 C   0  0  0  0  0  0  0  0  0  0  0  0
   -8.8011    4.6869  -10.5748 C   0  0  0  0  0  0  0  0  0  0  0  0
   -8.5935    1.9384  -10.2058 C   0  0  0  0  0  0  0  0  0  0  0  0
   -8.5193    4.1282  -12.9737 C   0  0  0  0  0  0  0  0  0  0  0  0
   -7.9138    4.3513  -19.7181 C   0  0  0  0  0  0  0  0  0  0  0  0
   -5.5728    5.0782  -18.1106 C   0  0  0  0  0  0  0  0  0  0  0  0
   -8.8968    5.9739  -10.7657 N   0  0  0  0  0  0  0  0  0  0  0  0
   -8.5188    2.4125  -11.4073 N   0  0  0  0  0  0  0  0  0  0  0  0
   -8.6177    3.7586  -11.6188 N   0  0  0  0  0  0  0  0  0  0  0  0
   -8.3594    3.3462  -13.9067 O   0  0  0  0  0  0  0  0  0  0  0  0
   -8.9117    8.0208  -12.4971 S   0  0  0  0  0  0  0  0  0  0  0  0
   -8.4481    0.2133  -10.1267 Cl  0  0  0  0  0  0  0  0  0  0  0  0
   -9.2876    5.1125   -5.9655 H   0  0  0  0  0  0  0  0  0  0  0  0
   -9.1037    2.6642   -5.6291 H   0  0  0  0  0  0  0  0  0  0  0  0
  -10.5229    5.5658  -16.0854 H   0  0  0  0  0  0  0  0  0  0  0  0
   -9.1522    6.0695   -8.2238 H   0  0  0  0  0  0  0  0  0  0  0  0
   -8.7845    1.1672   -7.5445 H   0  0  0  0  0  0  0  0  0  0  0  0
  -10.2242    4.7290  -18.3775 H   0  0  0  0  0  0  0  0  0  0  0  0
   -6.2492    5.9508  -15.6650 H   0  0  0  0  0  0  0  0  0  0  0  0
   -8.7202    8.4592  -14.8855 H   0  0  0  0  0  0  0  0  0  0  0  0
   -7.9271    5.1825  -20.4325 H   0  0  0  0  0  0  0  0  0  0  0  0
   -6.9707    3.8035  -19.8367 H   0  0  0  0  0  0  0  0  0  0  0  0
   -8.7217    3.6554  -19.9762 H   0  0  0  0  0  0  0  0  0  0  0  0
   -5.1697    4.0824  -17.8930 H   0  0  0  0  0  0  0  0  0  0  0  0
   -5.5643    5.2291  -19.1971 H   0  0  0  0  0  0  0  0  0  0  0  0
   -4.9006    5.8298  -17.6785 H   0  0  0  0  0  0  0  0  0  0  0  0
  1  2  2  0  0  0  0
  1  4  1  0  0  0  0
  2  5  1  0  0  0  0
  3  6  1  0  0  0  0
  3  9  2  0  0  0  0
  4 11  2  0  0  0  0
  5 12  2  0  0  0  0
  6 14  2  0  0  0  0
  7  9  1  0  0  0  0
  7 15  2  0  0  0  0
  8 10  2  0  0  0  0
  8 26  1  0  0  0  0
  9 10  1  0  0  0  0
 10 13  1  0  0  0  0
 11 12  1  0  0  0  0
 11 17  1  0  0  0  0
 12 18  1  0  0  0  0
 13 16  2  0  0  0  0
 13 19  1  0  0  0  0
 14 15  1  0  0  0  0
 14 20  1  0  0  0  0
 15 21  1  0  0  0  0
 16 22  1  0  0  0  0
 16 26  1  0  0  0  0
 17 22  2  0  0  0  0
 17 24  1  0  0  0  0
 18 23  2  0  0  0  0
 18 27  1  0  0  0  0
 19 24  1  0  0  0  0
 19 25  2  0  0  0  0
 23 24  1  0  0  0  0
  1 28  1  0  0  0  0
  2 29  1  0  0  0  0
  3 30  1  0  0  0  0
  4 31  1  0  0  0  0
  5 32  1  0  0  0  0
  6 33  1  0  0  0  0
  7 34  1  0  0  0  0
  8 35  1  0  0  0  0
 20 36  1  0  0  0  0
 20 37  1  0  0  0  0
 20 38  1  0  0  0  0
 21 39  1  0  0  0  0
 21 40  1  0  0  0  0
 21 41  1  0  0  0  0
M  END
> <id>
EN300-18221243

> <smiles>
CC=1C=CC(=CC1C)C2=CSC=3N=C4C=5C=CC=CC5C(Cl)=NN4C(=O)C23

> <MDLNUMBER>
MFCD02654933

> <IUPAC Name>
8-chloro-13-(3,4-dimethylphenyl)-15-thia-9,10,17-triazatetracyclo[8.7.0.0^{2,7}.0^{12,16}]heptadeca-1(17),2(7),3,5,8,12(16),13-heptaen-11-one

> <CAS>
379251-20-4

> <URL>
https://www.enaminestore.com/catalog/EN300-18221243

> <ROCS_ShapeQuery>
_x0404_0B

> <ROCS_TanimotoCombo>
0.486 

> <ROCS_ShapeTanimoto>
0.419 

> <ROCS_ColorTanimoto>
0.067 

> <ROCS_RefTversky>
0.364 

> <ROCS_RefColorTversky>
0.072 

> <ROCS_RefTverskyCombo>
0.436 

> <ROCS_FitTversky>
1.569 

> <ROCS_FitColorTversky>
0.458 

> <ROCS_FitTverskyCombo>
2.027 

> <ROCS_ColorScore>
-5.230

> <ROCS_Overlap>
2431.974

> <ROCS_Rank>
9                   

$$$$
untitled-dbase-77248_3
  -OEChem-08222312023D

 38 41  0     0  0  0  0  0  0999 V2000
   -7.5888    6.2230  -15.8795 C   0  0  0  0  0  0  0  0  0  0  0  0
   -9.7422    5.7119  -15.4585 C   0  0  0  0  0  0  0  0  0  0  0  0
   -8.6511    6.3877  -14.9589 C   0  0  0  0  0  0  0  0  0  0  0  0
   -8.0565    5.4489  -16.9228 C   0  0  0  0  0  0  0  0  0  0  0  0
   -8.9572    5.1117  -10.1505 C   0  0  0  0  0  0  0  0  0  0  0  0
   -8.4176    4.4135  -11.2115 C   0  0  0  0  0  0  0  0  0  0  0  0
   -9.1107    3.0879   -9.3381 C   0  0  0  0  0  0  0  0  0  0  0  0
   -9.6347    3.8904  -18.6406 C   0  0  0  0  0  0  0  0  0  0  0  0
   -8.2487    4.1978  -18.9496 C   0  0  0  0  0  0  0  0  0  0  0  0
  -10.1724    4.3635  -17.5073 C   0  0  0  0  0  0  0  0  0  0  0  0
   -7.4652    4.9477  -18.1374 C   0  0  0  0  0  0  0  0  0  0  0  0
   -8.6404    7.1328  -13.6908 C   0  0  0  0  0  0  0  0  0  0  0  0
   -9.1081    6.5901  -10.1738 C   0  0  0  0  0  0  0  0  0  0  0  0
   -7.9079    5.0120  -12.4770 C   0  0  0  0  0  0  0  0  0  0  0  0
   -8.1997    7.1986  -11.2533 C   0  0  0  0  0  0  0  0  0  0  0  0
   -6.0356    5.2199  -18.5327 C   0  0  0  0  0  0  0  0  0  0  0  0
   -9.3604    4.3531   -9.0736 N   0  0  0  0  0  0  0  0  0  0  0  0
   -9.3864    5.1365  -16.6573 N   0  0  0  0  0  0  0  0  0  0  0  0
   -8.2773    6.4490  -12.5241 N   0  0  0  0  0  0  0  0  0  0  0  0
   -9.3819    2.0605   -8.4897 N   0  0  0  0  0  0  0  0  0  0  0  0
   -8.9501    8.3217  -13.7546 O   0  0  0  0  0  0  0  0  0  0  0  0
   -5.4251    5.9771  -17.6039 F   0  0  0  0  0  0  0  0  0  0  0  0
   -5.3506    4.0690  -18.6557 F   0  0  0  0  0  0  0  0  0  0  0  0
   -5.9822    5.8700  -19.7089 F   0  0  0  0  0  0  0  0  0  0  0  0
   -8.3950    2.7470  -10.8652 S   0  0  0  0  0  0  0  0  0  0  0  0
   -6.5881    6.6253  -15.7935 H   0  0  0  0  0  0  0  0  0  0  0  0
  -10.7431    5.5905  -15.0640 H   0  0  0  0  0  0  0  0  0  0  0  0
  -10.2054    3.2846  -19.3338 H   0  0  0  0  0  0  0  0  0  0  0  0
   -7.8653    3.7893  -19.8801 H   0  0  0  0  0  0  0  0  0  0  0  0
  -11.1987    4.1710  -17.2189 H   0  0  0  0  0  0  0  0  0  0  0  0
  -10.1542    6.8396  -10.3864 H   0  0  0  0  0  0  0  0  0  0  0  0
   -8.8555    7.0142   -9.1960 H   0  0  0  0  0  0  0  0  0  0  0  0
   -6.8140    4.9609  -12.5126 H   0  0  0  0  0  0  0  0  0  0  0  0
   -8.3119    4.4794  -13.3424 H   0  0  0  0  0  0  0  0  0  0  0  0
   -8.4574    8.2521  -11.4016 H   0  0  0  0  0  0  0  0  0  0  0  0
   -7.1506    7.1630  -10.9331 H   0  0  0  0  0  0  0  0  0  0  0  0
   -9.2142    1.0842   -8.7553 H   0  0  0  0  0  0  0  0  0  0  0  0
   -9.8511    2.2142   -7.5908 H   0  0  0  0  0  0  0  0  0  0  0  0
  1  3  1  0  0  0  0
  1  4  2  0  0  0  0
  2  3  2  0  0  0  0
  2 18  1  0  0  0  0
  3 12  1  0  0  0  0
  4 11  1  0  0  0  0
  4 18  1  0  0  0  0
  5  6  2  0  0  0  0
  5 13  1  0  0  0  0
  5 17  1  0  0  0  0
  6 14  1  0  0  0  0
  6 25  1  0  0  0  0
  7 17  2  0  0  0  0
  7 20  1  0  0  0  0
  7 25  1  0  0  0  0
  8  9  1  0  0  0  0
  8 10  2  0  0  0  0
  9 11  2  0  0  0  0
 10 18  1  0  0  0  0
 11 16  1  0  0  0  0
 12 19  1  0  0  0  0
 12 21  2  0  0  0  0
 13 15  1  0  0  0  0
 14 19  1  0  0  0  0
 15 19  1  0  0  0  0
 16 22  1  0  0  0  0
 16 23  1  0  0  0  0
 16 24  1  0  0  0  0
  1 26  1  0  0  0  0
  2 27  1  0  0  0  0
  8 28  1  0  0  0  0
  9 29  1  0  0  0  0
 10 30  1  0  0  0  0
 13 31  1  0  0  0  0
 13 32  1  0  0  0  0
 14 33  1  0  0  0  0
 14 34  1  0  0  0  0
 15 35  1  0  0  0  0
 15 36  1  0  0  0  0
 20 37  1  0  0  0  0
 20 38  1  0  0  0  0
M  END
> <id>
EN300-6494845

> <smiles>
NC1=NC=2CCN(CC2S1)C(=O)C=3C=C4C(=CC=CN4C3)C(F)(F)F

> <MDLNUMBER>
MFCD32640641

> <IUPAC Name>
5-[8-(trifluoromethyl)indolizine-2-carbonyl]-4H,5H,6H,7H-[1,3]thiazolo[5,4-c]pyridin-2-amine

> <CAS>
2408968-71-6

> <URL>
https://www.enaminestore.com/catalog/EN300-6494845

> <ROCS_ShapeQuery>
_x0404_0B

> <ROCS_TanimotoCombo>
0.482 

> <ROCS_ShapeTanimoto>
0.398 

> <ROCS_ColorTanimoto>
0.084 

> <ROCS_RefTversky>
0.347 

> <ROCS_RefColorTversky>
0.089 

> <ROCS_RefTverskyCombo>
0.436 

> <ROCS_FitTversky>
1.594 

> <ROCS_FitColorTversky>
0.566 

> <ROCS_FitTverskyCombo>
2.160 

> <ROCS_ColorScore>
-6.462

> <ROCS_Overlap>
2317.016

> <ROCS_Rank>
10                  

$$$$
untitled-dbase-171669_2
  -OEChem-08222312023D

 38 41  0     1  0  0  0  0  0999 V2000
   -8.8809    6.0521  -11.6699 C   0  0  0  0  0  0  0  0  0  0  0  0
   -8.1653    3.2749  -11.3770 C   0  0  0  0  0  0  0  0  0  0  0  0
   -8.5220    5.2600  -12.7432 C   0  0  0  0  0  0  0  0  0  0  0  0
   -8.1753    3.9161  -12.6012 C   0  0  0  0  0  0  0  0  0  0  0  0
   -8.8884    5.4186  -10.4348 C   0  0  0  0  0  0  0  0  0  0  0  0
   -8.5407    4.0518  -10.2876 C   0  0  0  0  0  0  0  0  0  0  0  0
   -8.4136    5.6062  -14.1606 C   0  0  0  0  0  0  0  0  0  0  0  0
   -7.8427    3.3954  -13.9270 C   0  0  0  0  0  0  0  0  0  0  0  0
   -7.5779    5.5083  -18.8766 C   0  0  0  0  0  0  0  0  0  0  0  0
   -6.6236    5.2704  -16.5683 C   0  0  0  0  0  0  0  0  0  0  0  0
   -9.1928    6.0337   -9.1021 C   0  0  0  0  0  0  0  0  0  0  0  0
   -8.7287    4.6110  -18.4879 C   0  0  0  0  0  0  0  0  0  0  0  0
   -9.4724    4.7830   -8.2562 C   0  0  0  0  0  0  0  0  0  0  0  0
   -9.0273    4.7025  -17.0026 C   0  0  0  0  0  0  0  0  0  0  0  0
   -8.5821    3.6637   -8.8343 C   0  0  1  0  0  0  0  0  0  0  0  0
   -7.7769    4.3488  -16.2136 C   0  0  2  0  0  0  0  0  0  0  0  0
   -6.6340    5.7408  -17.8809 N   0  0  0  0  0  0  0  0  0  0  0  0
   -8.0070    4.4529  -14.7972 N   0  0  0  0  0  0  0  0  0  0  0  0
   -9.1286    2.3409   -8.5726 N   0  0  0  0  0  0  0  0  0  0  0  0
   -8.6517    6.7117  -14.6105 O   0  0  0  0  0  0  0  0  0  0  0  0
   -7.4982    2.2483  -14.1440 O   0  0  0  0  0  0  0  0  0  0  0  0
   -7.4690    5.9540  -20.0187 O   0  0  0  0  0  0  0  0  0  0  0  0
   -5.7073    5.5236  -15.7862 O   0  0  0  0  0  0  0  0  0  0  0  0
   -9.1402    7.0973  -11.7805 H   0  0  0  0  0  0  0  0  0  0  0  0
   -7.8872    2.2337  -11.2704 H   0  0  0  0  0  0  0  0  0  0  0  0
   -8.3485    6.6038   -8.7029 H   0  0  0  0  0  0  0  0  0  0  0  0
  -10.0779    6.6747   -9.1750 H   0  0  0  0  0  0  0  0  0  0  0  0
   -9.6129    4.9123  -19.0600 H   0  0  0  0  0  0  0  0  0  0  0  0
   -8.4708    3.5847  -18.7722 H   0  0  0  0  0  0  0  0  0  0  0  0
   -9.1661    4.9780   -7.2210 H   0  0  0  0  0  0  0  0  0  0  0  0
  -10.5340    4.5280   -8.2317 H   0  0  0  0  0  0  0  0  0  0  0  0
   -9.3576    5.7213  -16.7601 H   0  0  0  0  0  0  0  0  0  0  0  0
   -9.8465    4.0195  -16.7497 H   0  0  0  0  0  0  0  0  0  0  0  0
   -7.5649    3.7384   -8.3824 H   0  0  0  0  0  0  0  0  0  0  0  0
   -7.4646    3.3189  -16.4241 H   0  0  0  0  0  0  0  0  0  0  0  0
   -5.8496    6.3307  -18.1450 H   0  0  0  0  0  0  0  0  0  0  0  0
   -8.5231    1.6671   -8.9793 H   0  0  0  0  0  0  0  0  0  0  0  0
   -9.1817    2.2148   -7.5891 H   0  0  0  0  0  0  0  0  0  0  0  0
  1  3  1  0  0  0  0
  1  5  2  0  0  0  0
  2  4  1  0  0  0  0
  2  6  2  0  0  0  0
  3  4  2  0  0  0  0
  3  7  1  0  0  0  0
  4  8  1  0  0  0  0
  5  6  1  0  0  0  0
  5 11  1  0  0  0  0
  6 15  1  0  0  0  0
  7 18  1  0  0  0  0
  7 20  2  0  0  0  0
  8 18  1  0  0  0  0
  8 21  2  0  0  0  0
  9 12  1  0  0  0  0
  9 17  1  0  0  0  0
  9 22  2  0  0  0  0
 10 16  1  0  0  0  0
 10 17  1  0  0  0  0
 10 23  2  0  0  0  0
 11 13  1  0  0  0  0
 12 14  1  0  0  0  0
 13 15  1  0  0  0  0
 14 16  1  0  0  0  0
 15 19  1  0  0  0  0
 16 18  1  0  0  0  0
  1 24  1  0  0  0  0
  2 25  1  0  0  0  0
 11 26  1  0  0  0  0
 11 27  1  0  0  0  0
 12 28  1  0  0  0  0
 12 29  1  0  0  0  0
 13 30  1  0  0  0  0
 13 31  1  0  0  0  0
 14 32  1  0  0  0  0
 14 33  1  0  0  0  0
 15 34  1  0  0  0  0
 16 35  1  0  0  0  0
 17 36  1  0  0  0  0
 19 37  1  0  0  0  0
 19 38  1  0  0  0  0
M  END
> <id>
EN300-39872086

> <smiles>
NC1CCC=2C=C3C(=O)N(C4CCC(=O)NC4=O)C(=O)C3=CC12

> <IUPAC Name>
3-{5-amino-1,3-dioxo-1H,2H,3H,5H,6H,7H-cyclopenta[f]isoindol-2-yl}piperidine-2,6-dione

> <URL>
https://www.enaminestore.com/catalog/EN300-39872086

> <ROCS_ShapeQuery>
_x0404_0B

> <ROCS_TanimotoCombo>
0.481 

> <ROCS_ShapeTanimoto>
0.373 

> <ROCS_ColorTanimoto>
0.108 

> <ROCS_RefTversky>
0.328 

> <ROCS_RefColorTversky>
0.117 

> <ROCS_RefTverskyCombo>
0.444 

> <ROCS_FitTversky>
1.589 

> <ROCS_FitColorTversky>
0.592 

> <ROCS_FitTverskyCombo>
2.182 

> <ROCS_ColorScore>
-8.449

> <ROCS_Overlap>
2189.129

> <ROCS_Rank>
11                  

$$$$
untitled-dbase-103704_1066
  -OEChem-08222312023D

 62 65  0     0  0  0  0  0  0999 V2000
   -8.6838    4.2210   -9.3524 B   0  0  0  0  0  0  0  0  0  0  0  0
   -8.8702    6.2372  -14.3194 C   0  0  0  0  0  0  0  0  0  0  0  0
   -5.2600    5.9387  -17.7310 C   0  0  0  0  0  0  0  0  0  0  0  0
   -5.9977    6.7135  -18.8218 C   0  0  0  0  0  0  0  0  0  0  0  0
   -6.1771    4.7837  -17.3394 C   0  0  0  0  0  0  0  0  0  0  0  0
   -7.3044    5.9641  -19.0534 C   0  0  0  0  0  0  0  0  0  0  0  0
   -7.2436    4.5884  -11.5974 C   0  0  0  0  0  0  0  0  0  0  0  0
   -8.7264    6.4826  -10.8181 C   0  0  0  0  0  0  0  0  0  0  0  0
   -8.2020    4.3423  -12.7707 C   0  0  0  0  0  0  0  0  0  0  0  0
   -9.6708    6.1766  -11.9800 C   0  0  0  0  0  0  0  0  0  0  0  0
   -8.9608    4.0677  -15.6354 C   0  0  0  0  0  0  0  0  0  0  0  0
   -8.2279    6.1814  -16.6989 C   0  0  0  0  0  0  0  0  0  0  0  0
   -9.4230    3.8111  -17.0618 C   0  0  0  0  0  0  0  0  0  0  0  0
   -7.9306    5.2369  -10.3791 C   0  0  0  0  0  0  0  0  0  0  0  0
   -7.5903    5.2382  -17.7328 C   0  0  0  0  0  0  0  0  0  0  0  0
   -9.6395    3.4275   -7.4305 C   0  0  0  0  0  0  0  0  0  0  0  0
   -9.7096    2.3382   -8.5530 C   0  0  0  0  0  0  0  0  0  0  0  0
  -10.9745    3.7088   -6.7263 C   0  0  0  0  0  0  0  0  0  0  0  0
   -8.5747    3.1696   -6.3407 C   0  0  0  0  0  0  0  0  0  0  0  0
  -11.1055    2.1491   -9.1886 C   0  0  0  0  0  0  0  0  0  0  0  0
   -9.1912    0.9545   -8.1362 C   0  0  0  0  0  0  0  0  0  0  0  0
   -8.9640    5.5531  -13.1000 N   0  0  0  0  0  0  0  0  0  0  0  0
   -8.5882    5.4780  -15.4665 N   0  0  0  0  0  0  0  0  0  0  0  0
   -9.0548    7.4595  -14.3892 O   0  0  0  0  0  0  0  0  0  0  0  0
   -9.2370    4.6407   -8.1446 O   0  0  0  0  0  0  0  0  0  0  0  0
   -8.8283    2.8579   -9.6005 O   0  0  0  0  0  0  0  0  0  0  0  0
   -8.4034    4.0962  -18.0173 O   0  0  0  0  0  0  0  0  0  0  0  0
   -4.3066    5.5627  -18.1199 H   0  0  0  0  0  0  0  0  0  0  0  0
   -5.0334    6.5722  -16.8672 H   0  0  0  0  0  0  0  0  0  0  0  0
   -6.1766    7.7548  -18.5342 H   0  0  0  0  0  0  0  0  0  0  0  0
   -5.3968    6.7245  -19.7392 H   0  0  0  0  0  0  0  0  0  0  0  0
   -5.8751    3.8569  -17.8444 H   0  0  0  0  0  0  0  0  0  0  0  0
   -6.1089    4.6167  -16.2547 H   0  0  0  0  0  0  0  0  0  0  0  0
   -8.1044    6.6889  -19.2766 H   0  0  0  0  0  0  0  0  0  0  0  0
   -7.2202    5.2999  -19.9242 H   0  0  0  0  0  0  0  0  0  0  0  0
   -6.7936    3.6257  -11.3052 H   0  0  0  0  0  0  0  0  0  0  0  0
   -6.4117    5.2168  -11.9521 H   0  0  0  0  0  0  0  0  0  0  0  0
   -8.0431    7.2869  -11.1217 H   0  0  0  0  0  0  0  0  0  0  0  0
   -9.3087    6.8732   -9.9726 H   0  0  0  0  0  0  0  0  0  0  0  0
   -7.6479    4.0471  -13.6666 H   0  0  0  0  0  0  0  0  0  0  0  0
   -8.8864    3.5285  -12.5188 H   0  0  0  0  0  0  0  0  0  0  0  0
  -10.5221    5.5804  -11.6468 H   0  0  0  0  0  0  0  0  0  0  0  0
  -10.0975    7.1121  -12.3623 H   0  0  0  0  0  0  0  0  0  0  0  0
   -9.7327    3.7788  -14.9157 H   0  0  0  0  0  0  0  0  0  0  0  0
   -8.0594    3.4823  -15.4196 H   0  0  0  0  0  0  0  0  0  0  0  0
   -7.5131    6.9722  -16.4122 H   0  0  0  0  0  0  0  0  0  0  0  0
   -9.1021    6.6710  -17.1521 H   0  0  0  0  0  0  0  0  0  0  0  0
   -9.6886    2.7498  -17.1754 H   0  0  0  0  0  0  0  0  0  0  0  0
  -10.3334    4.3819  -17.2978 H   0  0  0  0  0  0  0  0  0  0  0  0
   -7.0979    5.6286   -9.7537 H   0  0  0  0  0  0  0  0  0  0  0  0
  -10.8202    4.4711   -5.9730 H   0  0  0  0  0  0  0  0  0  0  0  0
  -11.3262    2.7957   -6.2629 H   0  0  0  0  0  0  0  0  0  0  0  0
  -11.6927    4.0527   -7.4600 H   0  0  0  0  0  0  0  0  0  0  0  0
   -8.6023    3.9739   -5.6114 H   0  0  0  0  0  0  0  0  0  0  0  0
   -7.5911    3.1294   -6.7994 H   0  0  0  0  0  0  0  0  0  0  0  0
   -8.7842    2.2249   -5.8475 H   0  0  0  0  0  0  0  0  0  0  0  0
  -11.0535    1.3776   -9.9512 H   0  0  0  0  0  0  0  0  0  0  0  0
  -11.4266    3.0837   -9.6391 H   0  0  0  0  0  0  0  0  0  0  0  0
  -11.8147    1.8535   -8.4209 H   0  0  0  0  0  0  0  0  0  0  0  0
   -9.2820    0.2779   -8.9767 H   0  0  0  0  0  0  0  0  0  0  0  0
   -9.7832    0.5938   -7.3045 H   0  0  0  0  0  0  0  0  0  0  0  0
   -8.1530    1.0428   -7.8417 H   0  0  0  0  0  0  0  0  0  0  0  0
  1 14  1  0  0  0  0
  1 25  1  0  0  0  0
  1 26  1  0  0  0  0
  2 22  1  0  0  0  0
  2 23  1  0  0  0  0
  2 24  2  0  0  0  0
  3  4  1  0  0  0  0
  3  5  1  0  0  0  0
  4  6  1  0  0  0  0
  5 15  1  0  0  0  0
  6 15  1  0  0  0  0
  7  9  1  0  0  0  0
  7 14  1  0  0  0  0
  8 10  1  0  0  0  0
  8 14  1  0  0  0  0
  9 22  1  0  0  0  0
 10 22  1  0  0  0  0
 11 13  1  0  0  0  0
 11 23  1  0  0  0  0
 12 15  1  0  0  0  0
 12 23  1  0  0  0  0
 13 27  1  0  0  0  0
 15 27  1  0  0  0  0
 16 17  1  0  0  0  0
 16 18  1  0  0  0  0
 16 19  1  0  0  0  0
 16 25  1  0  0  0  0
 17 20  1  0  0  0  0
 17 21  1  0  0  0  0
 17 26  1  0  0  0  0
  3 28  1  0  0  0  0
  3 29  1  0  0  0  0
  4 30  1  0  0  0  0
  4 31  1  0  0  0  0
  5 32  1  0  0  0  0
  5 33  1  0  0  0  0
  6 34  1  0  0  0  0
  6 35  1  0  0  0  0
  7 36  1  0  0  0  0
  7 37  1  0  0  0  0
  8 38  1  0  0  0  0
  8 39  1  0  0  0  0
  9 40  1  0  0  0  0
  9 41  1  0  0  0  0
 10 42  1  0  0  0  0
 10 43  1  0  0  0  0
 11 44  1  0  0  0  0
 11 45  1  0  0  0  0
 12 46  1  0  0  0  0
 12 47  1  0  0  0  0
 13 48  1  0  0  0  0
 13 49  1  0  0  0  0
 14 50  1  0  0  0  0
 18 51  1  0  0  0  0
 18 52  1  0  0  0  0
 18 53  1  0  0  0  0
 19 54  1  0  0  0  0
 19 55  1  0  0  0  0
 19 56  1  0  0  0  0
 20 57  1  0  0  0  0
 20 58  1  0  0  0  0
 20 59  1  0  0  0  0
 21 60  1  0  0  0  0
 21 61  1  0  0  0  0
 21 62  1  0  0  0  0
M  END
> <id>
EN300-6735027

> <smiles>
CC1(C)OB(OC1(C)C)C2CCN(CC2)C(=O)N3CCOC4(CCCC4)C3

> <MDLNUMBER>
MFCD32858554

> <IUPAC Name>
9-[4-(4,4,5,5-tetramethyl-1,3,2-dioxaborolan-2-yl)piperidine-1-carbonyl]-6-oxa-9-azaspiro[4.5]decane

> <URL>
https://www.enaminestore.com/catalog/EN300-6735027

> <ROCS_ShapeQuery>
_x0404_0B

> <ROCS_TanimotoCombo>
0.477 

> <ROCS_ShapeTanimoto>
0.403 

> <ROCS_ColorTanimoto>
0.074 

> <ROCS_RefTversky>
0.351 

> <ROCS_RefColorTversky>
0.079 

> <ROCS_RefTverskyCombo>
0.431 

> <ROCS_FitTversky>
1.580 

> <ROCS_FitColorTversky>
0.504 

> <ROCS_FitTverskyCombo>
2.083 

> <ROCS_ColorScore>
-5.734

> <ROCS_Overlap>
2347.482

> <ROCS_Rank>
12                  

$$$$
untitled-dbase-119894_36
  -OEChem-08222312023D

 81 85  0     1  0  0  0  0  0999 V2000
   -7.2393    3.3976  -14.9623 C   0  0  0  0  0  0  0  0  0  0  0  0
   -7.2548    4.6648  -15.4171 C   0  0  0  0  0  0  0  0  0  0  0  0
   -8.9850    4.5138  -18.2639 C   0  0  0  0  0  0  0  0  0  0  0  0
   -7.6778    2.9484  -13.6021 C   0  0  0  0  0  0  0  0  0  0  0  0
   -9.6587    5.9262  -11.0093 C   0  0  0  0  0  0  0  0  0  0  0  0
   -7.2522    2.9439   -9.0380 C   0  0  0  0  0  0  0  0  0  0  0  0
   -8.3811    6.9266  -15.4327 C   0  0  0  0  0  0  0  0  0  0  0  0
   -9.0660    6.4003  -16.6974 C   0  0  0  0  0  0  0  0  0  0  0  0
   -7.6449    6.4967  -18.7965 C   0  0  0  0  0  0  0  0  0  0  0  0
   -8.9901    6.4161  -12.2951 C   0  0  0  0  0  0  0  0  0  0  0  0
   -7.5121    2.6713  -10.5239 C   0  0  0  0  0  0  0  0  0  0  0  0
   -6.4449    5.8896  -19.5271 C   0  0  0  0  0  0  0  0  0  0  0  0
   -5.6186    5.6965  -17.1150 C   0  0  0  0  0  0  0  0  0  0  0  0
   -6.9337    4.9259  -16.8891 C   0  0  2  0  0  0  0  0  0  0  0  0
   -7.9819    4.0919  -12.6091 C   0  0  2  0  0  0  0  0  0  0  0  0
   -8.7891    4.8676  -10.3036 C   0  0  2  0  0  0  0  0  0  0  0  0
   -8.5122    3.2956   -8.2548 C   0  0  1  0  0  0  0  0  0  0  0  0
   -7.7116    5.8367  -14.5327 C   0  0  1  0  0  0  0  0  0  0  0  0
   -8.1298    5.5959  -17.6315 C   0  0  2  0  0  0  0  0  0  0  0  0
   -8.5735    3.6054  -11.2077 C   0  0  2  0  0  0  0  0  0  0  0  0
   -8.6961    5.3002  -13.3380 C   0  0  2  0  0  0  0  0  0  0  0  0
   -5.2059    5.7535  -18.6092 C   0  0  0  0  0  0  0  0  0  0  0  0
   -9.2095    4.5807   -8.8067 C   0  0  0  0  0  0  0  0  0  0  0  0
   -6.4359    6.5041  -13.9291 C   0  0  0  0  0  0  0  0  0  0  0  0
   -9.8732    2.7801  -11.3685 C   0  0  0  0  0  0  0  0  0  0  0  0
  -10.0583    4.8680  -13.9442 C   0  0  0  0  0  0  0  0  0  0  0  0
   -4.2728    6.9642  -18.8120 C   0  0  0  0  0  0  0  0  0  0  0  0
   -4.4238    4.4848  -18.9976 C   0  0  0  0  0  0  0  0  0  0  0  0
   -8.7012    5.7722   -7.9427 C   0  0  0  0  0  0  0  0  0  0  0  0
  -10.7375    4.5193   -8.5977 C   0  0  0  0  0  0  0  0  0  0  0  0
  -10.1763    4.3459  -18.0494 O   0  0  0  0  0  0  0  0  0  0  0  0
   -8.2455    3.7491  -19.1039 O   0  0  0  0  0  0  0  0  0  0  0  0
   -9.3878    2.1708   -8.2504 O   0  0  0  0  0  0  0  0  0  0  0  0
   -6.8943    2.6020  -15.6180 H   0  0  0  0  0  0  0  0  0  0  0  0
   -8.5466    2.3054  -13.7544 H   0  0  0  0  0  0  0  0  0  0  0  0
   -6.8862    2.3130  -13.1901 H   0  0  0  0  0  0  0  0  0  0  0  0
   -9.7944    6.8065  -10.3720 H   0  0  0  0  0  0  0  0  0  0  0  0
  -10.6673    5.5581  -11.2205 H   0  0  0  0  0  0  0  0  0  0  0  0
   -6.7313    2.0982   -8.5650 H   0  0  0  0  0  0  0  0  0  0  0  0
   -6.5334    3.7754   -8.9517 H   0  0  0  0  0  0  0  0  0  0  0  0
   -7.6306    7.6718  -15.7285 H   0  0  0  0  0  0  0  0  0  0  0  0
   -9.1363    7.4882  -14.8793 H   0  0  0  0  0  0  0  0  0  0  0  0
   -9.9165    5.7647  -16.3855 H   0  0  0  0  0  0  0  0  0  0  0  0
   -9.5290    7.2386  -17.2472 H   0  0  0  0  0  0  0  0  0  0  0  0
   -7.3716    7.4796  -18.4209 H   0  0  0  0  0  0  0  0  0  0  0  0
   -8.4514    6.6511  -19.5088 H   0  0  0  0  0  0  0  0  0  0  0  0
   -9.6145    7.1980  -12.7408 H   0  0  0  0  0  0  0  0  0  0  0  0
   -8.0690    6.9105  -11.9843 H   0  0  0  0  0  0  0  0  0  0  0  0
   -6.5506    2.7654  -11.0538 H   0  0  0  0  0  0  0  0  0  0  0  0
   -7.8124    1.6180  -10.6336 H   0  0  0  0  0  0  0  0  0  0  0  0
   -6.7266    4.9111  -19.9234 H   0  0  0  0  0  0  0  0  0  0  0  0
   -6.1993    6.5171  -20.3873 H   0  0  0  0  0  0  0  0  0  0  0  0
   -5.7127    6.7182  -16.7582 H   0  0  0  0  0  0  0  0  0  0  0  0
   -4.8160    5.2359  -16.5363 H   0  0  0  0  0  0  0  0  0  0  0  0
   -6.8063    3.9444  -17.3718 H   0  0  0  0  0  0  0  0  0  0  0  0
   -6.9889    4.4810  -12.3291 H   0  0  0  0  0  0  0  0  0  0  0  0
   -7.7965    5.3313  -10.2026 H   0  0  0  0  0  0  0  0  0  0  0  0
   -8.2115    3.4817   -7.2111 H   0  0  0  0  0  0  0  0  0  0  0  0
   -6.7495    7.3271  -13.3075 H   0  0  0  0  0  0  0  0  0  0  0  0
   -5.8220    6.8530  -14.7436 H   0  0  0  0  0  0  0  0  0  0  0  0
   -5.9128    5.7630  -13.3465 H   0  0  0  0  0  0  0  0  0  0  0  0
  -10.6225    3.4021  -11.8383 H   0  0  0  0  0  0  0  0  0  0  0  0
  -10.2076    2.4666  -10.3892 H   0  0  0  0  0  0  0  0  0  0  0  0
   -9.6618    1.9179  -11.9858 H   0  0  0  0  0  0  0  0  0  0  0  0
   -9.8717    4.0936  -14.6703 H   0  0  0  0  0  0  0  0  0  0  0  0
  -10.5061    5.7300  -14.4112 H   0  0  0  0  0  0  0  0  0  0  0  0
  -10.6799    4.5002  -13.1442 H   0  0  0  0  0  0  0  0  0  0  0  0
   -3.4093    6.8590  -18.1652 H   0  0  0  0  0  0  0  0  0  0  0  0
   -4.8103    7.8721  -18.5630 H   0  0  0  0  0  0  0  0  0  0  0  0
   -3.9546    6.9974  -19.8478 H   0  0  0  0  0  0  0  0  0  0  0  0
   -3.5562    4.3906  -18.3540 H   0  0  0  0  0  0  0  0  0  0  0  0
   -4.1066    4.5648  -20.0315 H   0  0  0  0  0  0  0  0  0  0  0  0
   -5.0662    3.6196  -18.8766 H   0  0  0  0  0  0  0  0  0  0  0  0
   -8.9806    5.5918   -6.9158 H   0  0  0  0  0  0  0  0  0  0  0  0
   -9.1622    6.6778   -8.3068 H   0  0  0  0  0  0  0  0  0  0  0  0
   -7.6276    5.8288   -8.0387 H   0  0  0  0  0  0  0  0  0  0  0  0
  -10.9448    4.3203   -7.5525 H   0  0  0  0  0  0  0  0  0  0  0  0
  -11.1479    3.7259   -9.2116 H   0  0  0  0  0  0  0  0  0  0  0  0
  -11.1732    5.4695   -8.8847 H   0  0  0  0  0  0  0  0  0  0  0  0
   -8.7809    3.0413  -19.5220 H   0  0  0  0  0  0  0  0  0  0  0  0
   -8.9024    1.4477   -7.8253 H   0  0  0  0  0  0  0  0  0  0  0  0
  1  2  2  0  0  0  0
  1  4  1  0  0  0  0
  2 14  1  0  0  0  0
  2 18  1  0  0  0  0
  3 19  1  6  0  0  0
  3 31  2  0  0  0  0
  3 32  1  0  0  0  0
  4 15  1  6  0  0  0
  5 10  1  0  0  0  0
  5 16  1  6  0  0  0
  6 11  1  0  0  0  0
  6 17  1  0  0  0  0
  7  8  1  0  0  0  0
  7 18  1  0  0  0  0
  8 19  1  0  0  0  0
  9 12  1  0  0  0  0
  9 19  1  0  0  0  0
 10 21  1  0  0  0  0
 11 20  1  0  0  0  0
 12 22  1  0  0  0  0
 13 14  1  1  0  0  0
 13 22  1  0  0  0  0
 14 19  1  0  0  0  0
 15 20  1  0  0  0  0
 15 21  1  0  0  0  0
 16 20  1  0  0  0  0
 16 23  1  0  0  0  0
 17 23  1  0  0  0  0
 17 33  1  6  0  0  0
 18 21  1  0  0  0  0
 18 24  1  1  0  0  0
 20 25  1  6  0  0  0
 21 26  1  6  0  0  0
 22 27  1  0  0  0  0
 22 28  1  0  0  0  0
 23 29  1  0  0  0  0
 23 30  1  0  0  0  0
  1 34  1  0  0  0  0
  4 35  1  0  0  0  0
  4 36  1  0  0  0  0
  5 37  1  0  0  0  0
  5 38  1  0  0  0  0
  6 39  1  0  0  0  0
  6 40  1  0  0  0  0
  7 41  1  0  0  0  0
  7 42  1  0  0  0  0
  8 43  1  0  0  0  0
  8 44  1  0  0  0  0
  9 45  1  0  0  0  0
  9 46  1  0  0  0  0
 10 47  1  0  0  0  0
 10 48  1  0  0  0  0
 11 49  1  0  0  0  0
 11 50  1  0  0  0  0
 12 51  1  0  0  0  0
 12 52  1  0  0  0  0
 13 53  1  0  0  0  0
 13 54  1  0  0  0  0
 14 55  1  0  0  0  0
 15 56  1  0  0  0  0
 16 57  1  0  0  0  0
 17 58  1  0  0  0  0
 24 59  1  0  0  0  0
 24 60  1  0  0  0  0
 24 61  1  0  0  0  0
 25 62  1  0  0  0  0
 25 63  1  0  0  0  0
 25 64  1  0  0  0  0
 26 65  1  0  0  0  0
 26 66  1  0  0  0  0
 26 67  1  0  0  0  0
 27 68  1  0  0  0  0
 27 69  1  0  0  0  0
 27 70  1  0  0  0  0
 28 71  1  0  0  0  0
 28 72  1  0  0  0  0
 28 73  1  0  0  0  0
 29 74  1  0  0  0  0
 29 75  1  0  0  0  0
 29 76  1  0  0  0  0
 30 77  1  0  0  0  0
 30 78  1  0  0  0  0
 30 79  1  0  0  0  0
 32 80  1  0  0  0  0
 33 81  1  0  0  0  0
M  END
> <id>
EN300-342251

> <smiles>
CC1(C)CC[C@@]2(CC[C@]3(C)C(=CC[C@@H]4[C@@]5(C)CC[C@H](O)C(C)(C)[C@@H]5CC[C@]43C)[C@@H]2C1)C(=O)O

> <MDLNUMBER>
MFCD03225497

> <IUPAC Name>
(4aS,6aS,6bR,8aR,10S,12aR,12bR,14bS)-10-hydroxy-2,2,6a,6b,9,9,12a-heptamethyl-1,2,3,4,4a,5,6,6a,6b,7,8,8a,9,10,11,12,12a,12b,13,14b-icosahydropicene-4a-carboxylic acid

> <CAS>
508-02-1

> <URL>
https://www.enaminestore.com/catalog/EN300-342251

> <MP>
306-308

> <ROCS_ShapeQuery>
_x0404_0B

> <ROCS_TanimotoCombo>
0.477 

> <ROCS_ShapeTanimoto>
0.410 

> <ROCS_ColorTanimoto>
0.067 

> <ROCS_RefTversky>
0.366 

> <ROCS_RefColorTversky>
0.076 

> <ROCS_RefTverskyCombo>
0.442 

> <ROCS_FitTversky>
1.418 

> <ROCS_FitColorTversky>
0.362 

> <ROCS_FitTverskyCombo>
1.779 

> <ROCS_ColorScore>
-5.502

> <ROCS_Overlap>
2448.468

> <ROCS_Rank>
13                  

$$$$
untitled-dbase-24263_36
  -OEChem-08222312023D

 81 85  0     1  0  0  0  0  0999 V2000
   -7.2393    3.3976  -14.9623 C   0  0  0  0  0  0  0  0  0  0  0  0
   -7.2548    4.6648  -15.4171 C   0  0  0  0  0  0  0  0  0  0  0  0
   -8.9850    4.5138  -18.2639 C   0  0  0  0  0  0  0  0  0  0  0  0
   -7.6778    2.9484  -13.6021 C   0  0  0  0  0  0  0  0  0  0  0  0
   -9.6587    5.9262  -11.0093 C   0  0  0  0  0  0  0  0  0  0  0  0
   -7.2522    2.9439   -9.0380 C   0  0  0  0  0  0  0  0  0  0  0  0
   -8.3811    6.9266  -15.4327 C   0  0  0  0  0  0  0  0  0  0  0  0
   -9.0660    6.4003  -16.6974 C   0  0  0  0  0  0  0  0  0  0  0  0
   -7.6449    6.4967  -18.7965 C   0  0  0  0  0  0  0  0  0  0  0  0
   -8.9901    6.4161  -12.2951 C   0  0  0  0  0  0  0  0  0  0  0  0
   -7.5121    2.6713  -10.5239 C   0  0  0  0  0  0  0  0  0  0  0  0
   -6.4449    5.8896  -19.5271 C   0  0  0  0  0  0  0  0  0  0  0  0
   -5.6186    5.6965  -17.1150 C   0  0  0  0  0  0  0  0  0  0  0  0
   -6.9337    4.9259  -16.8891 C   0  0  2  0  0  0  0  0  0  0  0  0
   -7.9819    4.0919  -12.6091 C   0  0  2  0  0  0  0  0  0  0  0  0
   -8.7891    4.8676  -10.3036 C   0  0  2  0  0  0  0  0  0  0  0  0
   -8.5122    3.2956   -8.2548 C   0  0  1  0  0  0  0  0  0  0  0  0
   -7.7116    5.8367  -14.5327 C   0  0  1  0  0  0  0  0  0  0  0  0
   -8.1298    5.5959  -17.6315 C   0  0  2  0  0  0  0  0  0  0  0  0
   -8.5735    3.6054  -11.2077 C   0  0  2  0  0  0  0  0  0  0  0  0
   -8.6961    5.3002  -13.3380 C   0  0  2  0  0  0  0  0  0  0  0  0
   -5.2059    5.7535  -18.6092 C   0  0  0  0  0  0  0  0  0  0  0  0
   -9.2095    4.5807   -8.8067 C   0  0  0  0  0  0  0  0  0  0  0  0
   -6.4359    6.5041  -13.9291 C   0  0  0  0  0  0  0  0  0  0  0  0
   -9.8732    2.7801  -11.3685 C   0  0  0  0  0  0  0  0  0  0  0  0
  -10.0583    4.8680  -13.9442 C   0  0  0  0  0  0  0  0  0  0  0  0
   -4.2728    6.9642  -18.8120 C   0  0  0  0  0  0  0  0  0  0  0  0
   -4.4238    4.4848  -18.9976 C   0  0  0  0  0  0  0  0  0  0  0  0
   -8.7012    5.7722   -7.9427 C   0  0  0  0  0  0  0  0  0  0  0  0
  -10.7375    4.5193   -8.5977 C   0  0  0  0  0  0  0  0  0  0  0  0
  -10.1763    4.3459  -18.0494 O   0  0  0  0  0  0  0  0  0  0  0  0
   -8.2455    3.7491  -19.1039 O   0  0  0  0  0  0  0  0  0  0  0  0
   -9.3878    2.1708   -8.2504 O   0  0  0  0  0  0  0  0  0  0  0  0
   -6.8943    2.6020  -15.6180 H   0  0  0  0  0  0  0  0  0  0  0  0
   -8.5466    2.3054  -13.7544 H   0  0  0  0  0  0  0  0  0  0  0  0
   -6.8862    2.3130  -13.1901 H   0  0  0  0  0  0  0  0  0  0  0  0
   -9.7944    6.8065  -10.3720 H   0  0  0  0  0  0  0  0  0  0  0  0
  -10.6673    5.5581  -11.2205 H   0  0  0  0  0  0  0  0  0  0  0  0
   -6.7313    2.0982   -8.5650 H   0  0  0  0  0  0  0  0  0  0  0  0
   -6.5334    3.7754   -8.9517 H   0  0  0  0  0  0  0  0  0  0  0  0
   -7.6306    7.6718  -15.7285 H   0  0  0  0  0  0  0  0  0  0  0  0
   -9.1363    7.4882  -14.8793 H   0  0  0  0  0  0  0  0  0  0  0  0
   -9.9165    5.7647  -16.3855 H   0  0  0  0  0  0  0  0  0  0  0  0
   -9.5290    7.2386  -17.2472 H   0  0  0  0  0  0  0  0  0  0  0  0
   -7.3716    7.4796  -18.4209 H   0  0  0  0  0  0  0  0  0  0  0  0
   -8.4514    6.6511  -19.5088 H   0  0  0  0  0  0  0  0  0  0  0  0
   -9.6145    7.1980  -12.7408 H   0  0  0  0  0  0  0  0  0  0  0  0
   -8.0690    6.9105  -11.9843 H   0  0  0  0  0  0  0  0  0  0  0  0
   -6.5506    2.7654  -11.0538 H   0  0  0  0  0  0  0  0  0  0  0  0
   -7.8124    1.6180  -10.6336 H   0  0  0  0  0  0  0  0  0  0  0  0
   -6.7266    4.9111  -19.9234 H   0  0  0  0  0  0  0  0  0  0  0  0
   -6.1993    6.5171  -20.3873 H   0  0  0  0  0  0  0  0  0  0  0  0
   -5.7127    6.7182  -16.7582 H   0  0  0  0  0  0  0  0  0  0  0  0
   -4.8160    5.2359  -16.5363 H   0  0  0  0  0  0  0  0  0  0  0  0
   -6.8063    3.9444  -17.3718 H   0  0  0  0  0  0  0  0  0  0  0  0
   -6.9889    4.4810  -12.3291 H   0  0  0  0  0  0  0  0  0  0  0  0
   -7.7965    5.3313  -10.2026 H   0  0  0  0  0  0  0  0  0  0  0  0
   -8.2115    3.4817   -7.2111 H   0  0  0  0  0  0  0  0  0  0  0  0
   -6.7495    7.3271  -13.3075 H   0  0  0  0  0  0  0  0  0  0  0  0
   -5.8220    6.8530  -14.7436 H   0  0  0  0  0  0  0  0  0  0  0  0
   -5.9128    5.7630  -13.3465 H   0  0  0  0  0  0  0  0  0  0  0  0
  -10.6225    3.4021  -11.8383 H   0  0  0  0  0  0  0  0  0  0  0  0
  -10.2076    2.4666  -10.3892 H   0  0  0  0  0  0  0  0  0  0  0  0
   -9.6618    1.9179  -11.9858 H   0  0  0  0  0  0  0  0  0  0  0  0
   -9.8717    4.0936  -14.6703 H   0  0  0  0  0  0  0  0  0  0  0  0
  -10.5061    5.7300  -14.4112 H   0  0  0  0  0  0  0  0  0  0  0  0
  -10.6799    4.5002  -13.1442 H   0  0  0  0  0  0  0  0  0  0  0  0
   -3.4093    6.8590  -18.1652 H   0  0  0  0  0  0  0  0  0  0  0  0
   -4.8103    7.8721  -18.5630 H   0  0  0  0  0  0  0  0  0  0  0  0
   -3.9546    6.9974  -19.8478 H   0  0  0  0  0  0  0  0  0  0  0  0
   -3.5562    4.3906  -18.3540 H   0  0  0  0  0  0  0  0  0  0  0  0
   -4.1066    4.5648  -20.0315 H   0  0  0  0  0  0  0  0  0  0  0  0
   -5.0662    3.6196  -18.8766 H   0  0  0  0  0  0  0  0  0  0  0  0
   -8.9806    5.5918   -6.9158 H   0  0  0  0  0  0  0  0  0  0  0  0
   -9.1622    6.6778   -8.3068 H   0  0  0  0  0  0  0  0  0  0  0  0
   -7.6276    5.8288   -8.0387 H   0  0  0  0  0  0  0  0  0  0  0  0
  -10.9448    4.3203   -7.5525 H   0  0  0  0  0  0  0  0  0  0  0  0
  -11.1479    3.7259   -9.2116 H   0  0  0  0  0  0  0  0  0  0  0  0
  -11.1732    5.4695   -8.8847 H   0  0  0  0  0  0  0  0  0  0  0  0
   -8.7809    3.0413  -19.5220 H   0  0  0  0  0  0  0  0  0  0  0  0
   -8.9024    1.4477   -7.8253 H   0  0  0  0  0  0  0  0  0  0  0  0
  1  2  2  0  0  0  0
  1  4  1  0  0  0  0
  2 14  1  0  0  0  0
  2 18  1  0  0  0  0
  3 19  1  6  0  0  0
  3 31  2  0  0  0  0
  3 32  1  0  0  0  0
  4 15  1  6  0  0  0
  5 10  1  0  0  0  0
  5 16  1  6  0  0  0
  6 11  1  0  0  0  0
  6 17  1  0  0  0  0
  7  8  1  0  0  0  0
  7 18  1  0  0  0  0
  8 19  1  0  0  0  0
  9 12  1  0  0  0  0
  9 19  1  0  0  0  0
 10 21  1  0  0  0  0
 11 20  1  0  0  0  0
 12 22  1  0  0  0  0
 13 14  1  1  0  0  0
 13 22  1  0  0  0  0
 14 19  1  0  0  0  0
 15 20  1  0  0  0  0
 15 21  1  0  0  0  0
 16 20  1  0  0  0  0
 16 23  1  0  0  0  0
 17 23  1  0  0  0  0
 17 33  1  6  0  0  0
 18 21  1  0  0  0  0
 18 24  1  1  0  0  0
 20 25  1  6  0  0  0
 21 26  1  6  0  0  0
 22 27  1  0  0  0  0
 22 28  1  0  0  0  0
 23 29  1  0  0  0  0
 23 30  1  0  0  0  0
  1 34  1  0  0  0  0
  4 35  1  0  0  0  0
  4 36  1  0  0  0  0
  5 37  1  0  0  0  0
  5 38  1  0  0  0  0
  6 39  1  0  0  0  0
  6 40  1  0  0  0  0
  7 41  1  0  0  0  0
  7 42  1  0  0  0  0
  8 43  1  0  0  0  0
  8 44  1  0  0  0  0
  9 45  1  0  0  0  0
  9 46  1  0  0  0  0
 10 47  1  0  0  0  0
 10 48  1  0  0  0  0
 11 49  1  0  0  0  0
 11 50  1  0  0  0  0
 12 51  1  0  0  0  0
 12 52  1  0  0  0  0
 13 53  1  0  0  0  0
 13 54  1  0  0  0  0
 14 55  1  0  0  0  0
 15 56  1  0  0  0  0
 16 57  1  0  0  0  0
 17 58  1  0  0  0  0
 24 59  1  0  0  0  0
 24 60  1  0  0  0  0
 24 61  1  0  0  0  0
 25 62  1  0  0  0  0
 25 63  1  0  0  0  0
 25 64  1  0  0  0  0
 26 65  1  0  0  0  0
 26 66  1  0  0  0  0
 26 67  1  0  0  0  0
 27 68  1  0  0  0  0
 27 69  1  0  0  0  0
 27 70  1  0  0  0  0
 28 71  1  0  0  0  0
 28 72  1  0  0  0  0
 28 73  1  0  0  0  0
 29 74  1  0  0  0  0
 29 75  1  0  0  0  0
 29 76  1  0  0  0  0
 30 77  1  0  0  0  0
 30 78  1  0  0  0  0
 30 79  1  0  0  0  0
 32 80  1  0  0  0  0
 33 81  1  0  0  0  0
M  END
> <id>
EN300-333123

> <smiles>
O.CC1(C)CC[C@@]2(CC[C@]3(C)C(=CC[C@@H]4[C@@]5(C)CC[C@H](O)C(C)(C)[C@@H]5CC[C@]43C)[C@@H]2C1)C(=O)O

> <MDLNUMBER>
MFCD09037369

> <IUPAC Name>
(4aS,6aS,6bR,8aR,10S,12aR,12bR,14bS)-10-hydroxy-2,2,6a,6b,9,9,12a-heptamethyl-1,2,3,4,4a,5,6,6a,6b,7,8,8a,9,10,11,12,12a,12b,13,14b-icosahydropicene-4a-carboxylic acid hydrate

> <Purity>
95

> <URL>
https://www.enaminestore.com/catalog/EN300-333123

> <Saltdate>
O

> <ROCS_ShapeQuery>
_x0404_0B

> <ROCS_TanimotoCombo>
0.477 

> <ROCS_ShapeTanimoto>
0.410 

> <ROCS_ColorTanimoto>
0.067 

> <ROCS_RefTversky>
0.366 

> <ROCS_RefColorTversky>
0.076 

> <ROCS_RefTverskyCombo>
0.442 

> <ROCS_FitTversky>
1.418 

> <ROCS_FitColorTversky>
0.362 

> <ROCS_FitTverskyCombo>
1.779 

> <ROCS_ColorScore>
-5.502

> <ROCS_Overlap>
2448.468

> <ROCS_Rank>
14                  

$$$$
untitled-dbase-102689_0
  -OEChem-08222312023D

 52 55  0     1  0  0  0  0  0999 V2000
   -8.6785    3.9575   -9.4700 C   0  0  0  0  0  0  0  0  0  0  0  0
   -8.7441    4.7676  -10.5974 C   0  0  0  0  0  0  0  0  0  0  0  0
   -8.3258    5.1118  -17.2236 C   0  0  0  0  0  0  0  0  0  0  0  0
   -7.6473    4.4696  -18.2681 C   0  0  0  0  0  0  0  0  0  0  0  0
   -6.2230    6.0733  -16.4879 C   0  0  0  0  0  0  0  0  0  0  0  0
   -5.5562    5.4202  -17.5234 C   0  0  0  0  0  0  0  0  0  0  0  0
   -7.6058    5.9304  -16.3436 C   0  0  0  0  0  0  0  0  0  0  0  0
   -6.2683    4.6217  -18.4154 C   0  0  0  0  0  0  0  0  0  0  0  0
   -8.9922    6.1249  -10.4094 C   0  0  0  0  0  0  0  0  0  0  0  0
   -8.8383    4.5462   -8.2328 C   0  0  0  0  0  0  0  0  0  0  0  0
  -10.0080    6.9182  -13.8551 C   0  0  0  0  0  0  0  0  0  0  0  0
   -8.6119    4.1779  -11.9745 C   0  0  0  0  0  0  0  0  0  0  0  0
   -9.8111    4.9425  -17.0838 C   0  0  0  0  0  0  0  0  0  0  0  0
   -9.0710    7.0750  -11.5729 C   0  0  0  0  0  0  0  0  0  0  0  0
  -10.2592    5.3534  -15.6877 C   0  0  0  0  0  0  0  0  0  0  0  0
   -8.2920    5.2362  -13.0279 C   0  0  0  0  0  0  0  0  0  0  0  0
   -9.5997    6.6677  -15.2848 C   0  0  1  0  0  0  0  0  0  0  0  0
   -8.3858    3.6029  -19.2411 C   0  0  0  0  0  0  0  0  0  0  0  0
   -5.4523    6.9241  -15.5271 C   0  0  0  0  0  0  0  0  0  0  0  0
   -4.0758    5.5691  -17.6797 C   0  0  0  0  0  0  0  0  0  0  0  0
  -10.0992    7.8914  -16.0447 C   0  0  0  0  0  0  0  0  0  0  0  0
   -9.1371    6.6629   -9.1756 N   0  0  0  0  0  0  0  0  0  0  0  0
   -9.0605    5.8655   -8.0744 N   0  0  0  0  0  0  0  0  0  0  0  0
   -9.1735    6.3969  -12.8669 N   0  0  0  0  0  0  0  0  0  0  0  0
  -11.0392    7.5549  -13.6239 O   0  0  0  0  0  0  0  0  0  0  0  0
   -8.1730    6.6123  -15.2978 O   0  0  0  0  0  0  0  0  0  0  0  0
   -5.6156    3.9880  -19.4325 O   0  0  0  0  0  0  0  0  0  0  0  0
   -8.7677    3.6363   -6.7842 Cl  0  0  0  0  0  0  0  0  0  0  0  0
   -8.5038    2.8900   -9.5652 H   0  0  0  0  0  0  0  0  0  0  0  0
   -7.8163    3.4210  -11.9829 H   0  0  0  0  0  0  0  0  0  0  0  0
   -9.5529    3.6721  -12.2306 H   0  0  0  0  0  0  0  0  0  0  0  0
  -10.3474    5.5610  -17.8114 H   0  0  0  0  0  0  0  0  0  0  0  0
  -10.0695    3.8948  -17.2746 H   0  0  0  0  0  0  0  0  0  0  0  0
   -9.9225    7.7374  -11.4222 H   0  0  0  0  0  0  0  0  0  0  0  0
   -8.1603    7.6783  -11.6010 H   0  0  0  0  0  0  0  0  0  0  0  0
  -11.3489    5.4846  -15.6997 H   0  0  0  0  0  0  0  0  0  0  0  0
  -10.0312    4.5515  -14.9775 H   0  0  0  0  0  0  0  0  0  0  0  0
   -7.2656    5.5975  -12.9135 H   0  0  0  0  0  0  0  0  0  0  0  0
   -8.3828    4.8061  -14.0266 H   0  0  0  0  0  0  0  0  0  0  0  0
   -8.7307    4.2012  -20.0904 H   0  0  0  0  0  0  0  0  0  0  0  0
   -7.7439    2.7974  -19.6141 H   0  0  0  0  0  0  0  0  0  0  0  0
   -9.2529    3.1310  -18.7660 H   0  0  0  0  0  0  0  0  0  0  0  0
   -5.4027    7.9547  -15.8934 H   0  0  0  0  0  0  0  0  0  0  0  0
   -5.9228    6.9239  -14.5376 H   0  0  0  0  0  0  0  0  0  0  0  0
   -4.4319    6.5458  -15.3988 H   0  0  0  0  0  0  0  0  0  0  0  0
   -3.5561    4.7909  -17.1105 H   0  0  0  0  0  0  0  0  0  0  0  0
   -3.7810    5.4909  -18.7325 H   0  0  0  0  0  0  0  0  0  0  0  0
   -3.7388    6.5496  -17.3237 H   0  0  0  0  0  0  0  0  0  0  0  0
   -9.8455    7.7961  -17.0979 H   0  0  0  0  0  0  0  0  0  0  0  0
   -9.6322    8.7872  -15.6420 H   0  0  0  0  0  0  0  0  0  0  0  0
  -11.1788    7.9706  -15.9405 H   0  0  0  0  0  0  0  0  0  0  0  0
   -4.6687    4.1926  -19.3990 H   0  0  0  0  0  0  0  0  0  0  0  0
  1  2  2  0  0  0  0
  1 10  1  0  0  0  0
  2  9  1  0  0  0  0
  2 12  1  0  0  0  0
  3  4  1  0  0  0  0
  3  7  2  0  0  0  0
  3 13  1  0  0  0  0
  4  8  2  0  0  0  0
  4 18  1  0  0  0  0
  5  6  2  0  0  0  0
  5  7  1  0  0  0  0
  5 19  1  0  0  0  0
  6  8  1  0  0  0  0
  6 20  1  0  0  0  0
  7 26  1  0  0  0  0
  8 27  1  0  0  0  0
  9 14  1  0  0  0  0
  9 22  2  0  0  0  0
 10 23  2  0  0  0  0
 10 28  1  0  0  0  0
 11 17  1  0  0  0  0
 11 24  1  0  0  0  0
 11 25  2  0  0  0  0
 12 16  1  0  0  0  0
 13 15  1  0  0  0  0
 14 24  1  0  0  0  0
 15 17  1  0  0  0  0
 16 24  1  0  0  0  0
 17 21  1  0  0  0  0
 17 26  1  0  0  0  0
 22 23  1  0  0  0  0
  1 29  1  0  0  0  0
 12 30  1  0  0  0  0
 12 31  1  0  0  0  0
 13 32  1  0  0  0  0
 13 33  1  0  0  0  0
 14 34  1  0  0  0  0
 14 35  1  0  0  0  0
 15 36  1  0  0  0  0
 15 37  1  0  0  0  0
 16 38  1  0  0  0  0
 16 39  1  0  0  0  0
 18 40  1  0  0  0  0
 18 41  1  0  0  0  0
 18 42  1  0  0  0  0
 19 43  1  0  0  0  0
 19 44  1  0  0  0  0
 19 45  1  0  0  0  0
 20 46  1  0  0  0  0
 20 47  1  0  0  0  0
 20 48  1  0  0  0  0
 21 49  1  0  0  0  0
 21 50  1  0  0  0  0
 21 51  1  0  0  0  0
 27 52  1  0  0  0  0
M  END
> <id>
EN300-26621220

> <smiles>
CC=1C(C)=C2OC(C)(CCC2=C(C)C1O)C(=O)N3CCC=4C=C(Cl)N=NC4C3

> <IUPAC Name>
2-{3-chloro-5H,6H,7H,8H-pyrido[3,4-c]pyridazine-7-carbonyl}-2,5,7,8-tetramethyl-3,4-dihydro-2H-1-benzopyran-6-ol

> <CAS>
2411227-75-1

> <URL>
https://www.enaminestore.com/catalog/EN300-26621220

> <ROCS_ShapeQuery>
_x0404_0B

> <ROCS_TanimotoCombo>
0.476 

> <ROCS_ShapeTanimoto>
0.386 

> <ROCS_ColorTanimoto>
0.091 

> <ROCS_RefTversky>
0.344 

> <ROCS_RefColorTversky>
0.099 

> <ROCS_RefTverskyCombo>
0.442 

> <ROCS_FitTversky>
1.463 

> <ROCS_FitColorTversky>
0.526 

> <ROCS_FitTverskyCombo>
1.989 

> <ROCS_ColorScore>
-7.141

> <ROCS_Overlap>
2299.446

> <ROCS_Rank>
15                  

$$$$
untitled-dbase-81970_276
  -OEChem-08222312023D

 42 46  0     0  0  0  0  0  0999 V2000
   -8.5913    5.5376   -7.7540 C   0  0  0  0  0  0  0  0  0  0  0  0
   -8.2256    4.2374   -8.0896 C   0  0  0  0  0  0  0  0  0  0  0  0
   -5.1938    5.8764  -17.5158 C   0  0  0  0  0  0  0  0  0  0  0  0
  -12.0823    3.4150  -16.4019 C   0  0  0  0  0  0  0  0  0  0  0  0
   -5.2031    5.5693  -18.8649 C   0  0  0  0  0  0  0  0  0  0  0  0
  -12.2027    2.9376  -17.6944 C   0  0  0  0  0  0  0  0  0  0  0  0
   -8.9611    6.4390   -8.7526 C   0  0  0  0  0  0  0  0  0  0  0  0
   -8.2284    3.8336   -9.4251 C   0  0  0  0  0  0  0  0  0  0  0  0
   -9.3390    6.9439  -11.1201 C   0  0  0  0  0  0  0  0  0  0  0  0
   -6.3650    5.7430  -16.7664 C   0  0  0  0  0  0  0  0  0  0  0  0
  -10.9573    4.1601  -16.0355 C   0  0  0  0  0  0  0  0  0  0  0  0
   -9.3417    6.5402  -12.4555 C   0  0  0  0  0  0  0  0  0  0  0  0
   -6.3803    5.1176  -19.4510 C   0  0  0  0  0  0  0  0  0  0  0  0
  -11.2071    3.2288  -18.6187 C   0  0  0  0  0  0  0  0  0  0  0  0
   -8.6061    4.3385  -11.7926 C   0  0  0  0  0  0  0  0  0  0  0  0
   -8.9696    6.0499  -10.1020 C   0  0  0  0  0  0  0  0  0  0  0  0
   -8.5977    4.7277  -10.4432 C   0  0  0  0  0  0  0  0  0  0  0  0
   -7.5853    5.3130  -17.3402 C   0  0  0  0  0  0  0  0  0  0  0  0
   -9.9060    4.4374  -16.9391 C   0  0  0  0  0  0  0  0  0  0  0  0
   -8.9759    5.2400  -12.7911 C   0  0  0  0  0  0  0  0  0  0  0  0
   -7.5641    4.9766  -18.6992 C   0  0  0  0  0  0  0  0  0  0  0  0
  -10.0712    3.9812  -18.2561 C   0  0  0  0  0  0  0  0  0  0  0  0
   -8.7258    5.7442  -15.1985 C   0  0  0  0  0  0  0  0  0  0  0  0
   -8.7601    5.2036  -16.5023 N   0  0  0  0  0  0  0  0  0  0  0  0
   -8.5247    6.9286  -14.9317 O   0  0  0  0  0  0  0  0  0  0  0  0
   -8.9795    4.8324  -14.1449 O   0  0  0  0  0  0  0  0  0  0  0  0
   -8.9694    4.3772  -19.5816 S   0  0  0  0  0  0  0  0  0  0  0  0
   -8.5883    5.8513   -6.7143 H   0  0  0  0  0  0  0  0  0  0  0  0
   -7.9381    3.5357   -7.3119 H   0  0  0  0  0  0  0  0  0  0  0  0
   -4.2844    6.2300  -17.0418 H   0  0  0  0  0  0  0  0  0  0  0  0
  -12.8644    3.2236  -15.6726 H   0  0  0  0  0  0  0  0  0  0  0  0
   -4.3042    5.6844  -19.4606 H   0  0  0  0  0  0  0  0  0  0  0  0
  -13.0684    2.3552  -17.9876 H   0  0  0  0  0  0  0  0  0  0  0  0
   -9.2429    7.4507   -8.4681 H   0  0  0  0  0  0  0  0  0  0  0  0
   -7.9382    2.8126   -9.6642 H   0  0  0  0  0  0  0  0  0  0  0  0
   -9.6279    7.9654  -10.8808 H   0  0  0  0  0  0  0  0  0  0  0  0
   -6.3081    6.0386  -15.7191 H   0  0  0  0  0  0  0  0  0  0  0  0
  -10.9435    4.5643  -15.0214 H   0  0  0  0  0  0  0  0  0  0  0  0
   -9.6300    7.2466  -13.2292 H   0  0  0  0  0  0  0  0  0  0  0  0
   -6.3669    4.8686  -20.5139 H   0  0  0  0  0  0  0  0  0  0  0  0
  -11.3234    2.8638  -19.6408 H   0  0  0  0  0  0  0  0  0  0  0  0
   -8.3231    3.3251  -12.0719 H   0  0  0  0  0  0  0  0  0  0  0  0
  1  2  1  0  0  0  0
  1  7  2  0  0  0  0
  2  8  2  0  0  0  0
  3  5  2  0  0  0  0
  3 10  1  0  0  0  0
  4  6  2  0  0  0  0
  4 11  1  0  0  0  0
  5 13  1  0  0  0  0
  6 14  1  0  0  0  0
  7 16  1  0  0  0  0
  8 17  1  0  0  0  0
  9 12  1  0  0  0  0
  9 16  2  0  0  0  0
 10 18  2  0  0  0  0
 11 19  2  0  0  0  0
 12 20  2  0  0  0  0
 13 21  2  0  0  0  0
 14 22  2  0  0  0  0
 15 17  2  0  0  0  0
 15 20  1  0  0  0  0
 16 17  1  0  0  0  0
 18 21  1  0  0  0  0
 18 24  1  0  0  0  0
 19 22  1  0  0  0  0
 19 24  1  0  0  0  0
 20 26  1  0  0  0  0
 21 27  1  0  0  0  0
 22 27  1  0  0  0  0
 23 24  1  0  0  0  0
 23 25  2  0  0  0  0
 23 26  1  0  0  0  0
  1 28  1  0  0  0  0
  2 29  1  0  0  0  0
  3 30  1  0  0  0  0
  4 31  1  0  0  0  0
  5 32  1  0  0  0  0
  6 33  1  0  0  0  0
  7 34  1  0  0  0  0
  8 35  1  0  0  0  0
  9 36  1  0  0  0  0
 10 37  1  0  0  0  0
 11 38  1  0  0  0  0
 12 39  1  0  0  0  0
 13 40  1  0  0  0  0
 14 41  1  0  0  0  0
 15 42  1  0  0  0  0
M  END
> <id>
EN300-27777601

> <smiles>
O=C(OC=1C=CC=2C=CC=CC2C1)N3C=4C=CC=CC4SC=5C=CC=CC35

> <MDLNUMBER>
MFCD34167991

> <IUPAC Name>
naphthalen-2-yl 10H-phenothiazine-10-carboxylate

> <CAS>
1041173-18-5

> <Purity>
95

> <URL>
https://www.enaminestore.com/catalog/EN300-27777601

> <ROCS_ShapeQuery>
_x0404_0B

> <ROCS_TanimotoCombo>
0.475 

> <ROCS_ShapeTanimoto>
0.393 

> <ROCS_ColorTanimoto>
0.082 

> <ROCS_RefTversky>
0.347 

> <ROCS_RefColorTversky>
0.086 

> <ROCS_RefTverskyCombo>
0.433 

> <ROCS_FitTversky>
1.505 

> <ROCS_FitColorTversky>
0.652 

> <ROCS_FitTverskyCombo>
2.157 

> <ROCS_ColorScore>
-6.190

> <ROCS_Overlap>
2323.652

> <ROCS_Rank>
16                  

$$$$
untitled-dbase-106289_6
  -OEChem-08222312023D

 47 51  0     0  0  0  0  0  0999 V2000
   -8.7118    6.8595  -14.0812 C   0  0  0  0  0  0  0  0  0  0  0  0
   -8.7542    7.1661  -12.7175 C   0  0  0  0  0  0  0  0  0  0  0  0
   -8.7803    4.4526  -13.6329 C   0  0  0  0  0  0  0  0  0  0  0  0
   -8.7247    5.5219  -14.5325 C   0  0  0  0  0  0  0  0  0  0  0  0
   -8.8092    6.1096  -11.8392 C   0  0  0  0  0  0  0  0  0  0  0  0
   -8.8220    4.7620  -12.2938 C   0  0  0  0  0  0  0  0  0  0  0  0
   -9.1335    1.3737   -6.3609 C   0  0  0  0  0  0  0  0  0  0  0  0
   -9.2032    1.5089   -5.0308 C   0  0  0  0  0  0  0  0  0  0  0  0
   -9.0731    2.6360   -7.0555 C   0  0  0  0  0  0  0  0  0  0  0  0
   -8.9563    4.3255   -8.7711 C   0  0  0  0  0  0  0  0  0  0  0  0
   -9.0016    2.9092   -8.3685 C   0  0  0  0  0  0  0  0  0  0  0  0
   -8.9023    4.7546  -10.0450 C   0  0  0  0  0  0  0  0  0  0  0  0
   -9.0985    3.7829   -6.1311 C   0  0  0  0  0  0  0  0  0  0  0  0
   -8.9684    5.4269   -7.7254 C   0  0  0  0  0  0  0  0  0  0  0  0
   -7.5172    5.7486  -16.6630 C   0  0  0  0  0  0  0  0  0  0  0  0
   -9.3440    4.0700  -16.4418 C   0  0  0  0  0  0  0  0  0  0  0  0
   -7.8457    5.8449  -18.1560 C   0  0  0  0  0  0  0  0  0  0  0  0
   -9.6103    4.2263  -17.9421 C   0  0  0  0  0  0  0  0  0  0  0  0
   -7.4623    3.5479  -18.8598 C   0  0  0  0  0  0  0  0  0  0  0  0
   -9.0538    5.0342   -6.4063 N   0  0  0  0  0  0  0  0  0  0  0  0
   -8.8591    6.0900  -10.4408 N   0  0  0  0  0  0  0  0  0  0  0  0
   -8.8797    3.9315  -11.1691 N   0  0  0  0  0  0  0  0  0  0  0  0
   -8.6798    5.2635  -15.9079 N   0  0  0  0  0  0  0  0  0  0  0  0
   -8.4358    4.6279  -18.7223 N   0  0  0  0  0  0  0  0  0  0  0  0
   -8.9700    1.9241   -9.3242 N   0  0  0  0  0  0  0  0  0  0  0  0
   -8.9059    6.6110   -8.0452 O   0  0  0  0  0  0  0  0  0  0  0  0
   -9.2029    3.1633   -4.4869 S   0  0  0  0  0  0  0  0  0  0  0  0
   -8.6672    7.6737  -14.8018 H   0  0  0  0  0  0  0  0  0  0  0  0
   -8.7439    8.1946  -12.3763 H   0  0  0  0  0  0  0  0  0  0  0  0
   -8.7891    3.4233  -13.9742 H   0  0  0  0  0  0  0  0  0  0  0  0
   -9.1251    0.4165   -6.8614 H   0  0  0  0  0  0  0  0  0  0  0  0
   -9.2566    0.6812   -4.3368 H   0  0  0  0  0  0  0  0  0  0  0  0
   -6.6690    5.0657  -16.5304 H   0  0  0  0  0  0  0  0  0  0  0  0
   -7.2136    6.7334  -16.2840 H   0  0  0  0  0  0  0  0  0  0  0  0
  -10.2913    3.9026  -15.9110 H   0  0  0  0  0  0  0  0  0  0  0  0
   -8.7153    3.1840  -16.2850 H   0  0  0  0  0  0  0  0  0  0  0  0
   -8.5480    6.6941  -18.2921 H   0  0  0  0  0  0  0  0  0  0  0  0
   -6.9276    6.1333  -18.7149 H   0  0  0  0  0  0  0  0  0  0  0  0
  -10.0409    3.2795  -18.3380 H   0  0  0  0  0  0  0  0  0  0  0  0
  -10.4124    4.9843  -18.0645 H   0  0  0  0  0  0  0  0  0  0  0  0
   -7.9546    2.6620  -19.2873 H   0  0  0  0  0  0  0  0  0  0  0  0
   -6.6477    3.8712  -19.5246 H   0  0  0  0  0  0  0  0  0  0  0  0
   -7.0509    3.2972  -17.8709 H   0  0  0  0  0  0  0  0  0  0  0  0
   -8.8651    6.8774   -9.8165 H   0  0  0  0  0  0  0  0  0  0  0  0
   -8.9031    2.9270  -11.1493 H   0  0  0  0  0  0  0  0  0  0  0  0
   -8.9168    2.1973  -10.2770 H   0  0  0  0  0  0  0  0  0  0  0  0
   -9.0016    0.9786   -9.0238 H   0  0  0  0  0  0  0  0  0  0  0  0
  1  2  1  0  0  0  0
  1  4  2  0  0  0  0
  2  5  2  0  0  0  0
  3  4  1  0  0  0  0
  3  6  2  0  0  0  0
  4 23  1  0  0  0  0
  5  6  1  0  0  0  0
  5 21  1  0  0  0  0
  6 22  1  0  0  0  0
  7  8  2  0  0  0  0
  7  9  1  0  0  0  0
  8 27  1  0  0  0  0
  9 11  2  0  0  0  0
  9 13  1  0  0  0  0
 10 11  1  0  0  0  0
 10 12  2  3  0  0  0
 10 14  1  0  0  0  0
 11 25  1  0  0  0  0
 12 21  1  0  0  0  0
 12 22  1  0  0  0  0
 13 20  2  0  0  0  0
 13 27  1  0  0  0  0
 14 20  1  0  0  0  0
 14 26  2  0  0  0  0
 15 17  1  0  0  0  0
 15 23  1  0  0  0  0
 16 18  1  0  0  0  0
 16 23  1  0  0  0  0
 17 24  1  0  0  0  0
 18 24  1  0  0  0  0
 19 24  1  0  0  0  0
  1 28  1  0  0  0  0
  2 29  1  0  0  0  0
  3 30  1  0  0  0  0
  7 31  1  0  0  0  0
  8 32  1  0  0  0  0
 15 33  1  0  0  0  0
 15 34  1  0  0  0  0
 16 35  1  0  0  0  0
 16 36  1  0  0  0  0
 17 37  1  0  0  0  0
 17 38  1  0  0  0  0
 18 39  1  0  0  0  0
 18 40  1  0  0  0  0
 19 41  1  0  0  0  0
 19 42  1  0  0  0  0
 19 43  1  0  0  0  0
 21 44  1  0  0  0  0
 22 45  1  0  0  0  0
 25 46  1  0  0  0  0
 25 47  1  0  0  0  0
M  END
> <id>
EN300-719416

> <smiles>
CN1CCN(CC1)C=2C=CC=3NC(=C4C(=C5C=CSC5=NC4=O)N)NC3C2

> <IUPAC Name>
4-amino-5-[5-(4-methylpiperazin-1-yl)-2,3-dihydro-1H-1,3-benzodiazol-2-ylidene]-5H,6H-thieno[2,3-b]pyridin-6-one

> <CAS>
2416245-96-8

> <Purity>
95

> <URL>
https://www.enaminestore.com/catalog/EN300-719416

> <ROCS_ShapeQuery>
_x0404_0B

> <ROCS_TanimotoCombo>
0.475 

> <ROCS_ShapeTanimoto>
0.400 

> <ROCS_ColorTanimoto>
0.075 

> <ROCS_RefTversky>
0.352 

> <ROCS_RefColorTversky>
0.085 

> <ROCS_RefTverskyCombo>
0.437 

> <ROCS_FitTversky>
1.522 

> <ROCS_FitColorTversky>
0.381 

> <ROCS_FitTverskyCombo>
1.903 

> <ROCS_ColorScore>
-6.168

> <ROCS_Overlap>
2354.315

> <ROCS_Rank>
17                  

$$$$
untitled-dbase-103712_879
  -OEChem-08222312023D

 59 62  0     1  0  0  0  0  0999 V2000
   -8.9451    3.9612   -9.2333 B   0  0  0  0  0  0  0  0  0  0  0  0
   -9.1962    6.1648  -10.6348 C   0  0  0  0  0  0  0  0  0  0  0  0
   -8.9017    4.8546  -10.6663 C   0  0  0  0  0  0  0  0  0  0  0  0
   -9.6828    6.6784  -14.3136 C   0  0  0  0  0  0  0  0  0  0  0  0
   -9.1954    7.0254  -11.8636 C   0  0  0  0  0  0  0  0  0  0  0  0
   -8.5165    4.1343  -11.9340 C   0  0  0  0  0  0  0  0  0  0  0  0
   -8.2284    5.1006  -13.0869 C   0  0  0  0  0  0  0  0  0  0  0  0
   -9.8762    6.0474  -16.6907 C   0  0  0  0  0  0  0  0  0  0  0  0
   -9.3758    4.9049  -17.5762 C   0  0  0  0  0  0  0  0  0  0  0  0
   -7.5444    5.9675  -18.7835 C   0  0  0  0  0  0  0  0  0  0  0  0
   -7.6268    6.1990  -15.6921 C   0  0  0  0  0  0  0  0  0  0  0  0
   -6.0346    5.9632  -18.9959 C   0  0  0  0  0  0  0  0  0  0  0  0
   -5.6676    5.0801  -16.8540 C   0  0  0  0  0  0  0  0  0  0  0  0
   -7.1717    5.0155  -16.5618 C   0  0  2  0  0  0  0  0  0  0  0  0
   -8.9958    3.4882   -6.9945 C   0  0  0  0  0  0  0  0  0  0  0  0
   -9.0047    2.1596   -7.8231 C   0  0  0  0  0  0  0  0  0  0  0  0
   -7.9371    3.5441   -5.8840 C   0  0  0  0  0  0  0  0  0  0  0  0
  -10.3563    3.8745   -6.3714 C   0  0  0  0  0  0  0  0  0  0  0  0
  -10.1088    1.1672   -7.4314 C   0  0  0  0  0  0  0  0  0  0  0  0
   -7.6626    1.3936   -7.8367 C   0  0  0  0  0  0  0  0  0  0  0  0
   -9.1830    6.2090  -13.0881 N   0  0  0  0  0  0  0  0  0  0  0  0
   -9.0786    6.1669  -15.4735 N   0  0  0  0  0  0  0  0  0  0  0  0
   -7.9285    4.9231  -17.8251 N   0  0  1  0  0  0  0  0  0  0  0  0
  -10.6058    7.5001  -14.3697 O   0  0  0  0  0  0  0  0  0  0  0  0
   -8.6708    4.5163   -7.9857 O   0  0  0  0  0  0  0  0  0  0  0  0
   -9.2584    2.6046   -9.1951 O   0  0  0  0  0  0  0  0  0  0  0  0
   -5.3611    6.1470  -17.7512 O   0  0  0  0  0  0  0  0  0  0  0  0
   -9.4399    6.6624   -9.7016 H   0  0  0  0  0  0  0  0  0  0  0  0
  -10.0966    7.6510  -11.8763 H   0  0  0  0  0  0  0  0  0  0  0  0
   -8.3104    7.6696  -11.8295 H   0  0  0  0  0  0  0  0  0  0  0  0
   -7.6231    3.5185  -11.7425 H   0  0  0  0  0  0  0  0  0  0  0  0
   -9.3163    3.4475  -12.2516 H   0  0  0  0  0  0  0  0  0  0  0  0
   -7.1995    5.4723  -13.0211 H   0  0  0  0  0  0  0  0  0  0  0  0
   -8.3263    4.5861  -14.0519 H   0  0  0  0  0  0  0  0  0  0  0  0
   -9.8152    7.0069  -17.2205 H   0  0  0  0  0  0  0  0  0  0  0  0
  -10.9285    5.8823  -16.4312 H   0  0  0  0  0  0  0  0  0  0  0  0
   -9.6787    3.9364  -17.1228 H   0  0  0  0  0  0  0  0  0  0  0  0
   -9.9160    4.9603  -18.5435 H   0  0  0  0  0  0  0  0  0  0  0  0
   -7.8484    6.9554  -18.4117 H   0  0  0  0  0  0  0  0  0  0  0  0
   -8.0500    5.8035  -19.7469 H   0  0  0  0  0  0  0  0  0  0  0  0
   -7.0719    6.2427  -14.7542 H   0  0  0  0  0  0  0  0  0  0  0  0
   -7.4144    7.1486  -16.2014 H   0  0  0  0  0  0  0  0  0  0  0  0
   -5.7188    4.9992  -19.4058 H   0  0  0  0  0  0  0  0  0  0  0  0
   -5.7225    6.7433  -19.6999 H   0  0  0  0  0  0  0  0  0  0  0  0
   -5.0738    5.1983  -15.9339 H   0  0  0  0  0  0  0  0  0  0  0  0
   -5.3362    4.1466  -17.3304 H   0  0  0  0  0  0  0  0  0  0  0  0
   -7.3501    4.0690  -15.9811 H   0  0  0  0  0  0  0  0  0  0  0  0
   -8.0132    4.4963   -5.3740 H   0  0  0  0  0  0  0  0  0  0  0  0
   -6.9556    3.4396   -6.3291 H   0  0  0  0  0  0  0  0  0  0  0  0
   -8.1163    2.7350   -5.1871 H   0  0  0  0  0  0  0  0  0  0  0  0
  -10.2500    4.8040   -5.8198 H   0  0  0  0  0  0  0  0  0  0  0  0
  -10.6812    3.0875   -5.6971 H   0  0  0  0  0  0  0  0  0  0  0  0
  -11.0915    4.0028   -7.1606 H   0  0  0  0  0  0  0  0  0  0  0  0
  -10.0292    0.2881   -8.0585 H   0  0  0  0  0  0  0  0  0  0  0  0
  -11.0724    1.6393   -7.5758 H   0  0  0  0  0  0  0  0  0  0  0  0
   -9.9820    0.8935   -6.3915 H   0  0  0  0  0  0  0  0  0  0  0  0
   -7.7674    0.4919   -8.4331 H   0  0  0  0  0  0  0  0  0  0  0  0
   -7.3890    1.1264   -6.8202 H   0  0  0  0  0  0  0  0  0  0  0  0
   -6.8906    2.0253   -8.2664 H   0  0  0  0  0  0  0  0  0  0  0  0
  1  3  1  0  0  0  0
  1 25  1  0  0  0  0
  1 26  1  0  0  0  0
  2  3  2  0  0  0  0
  2  5  1  0  0  0  0
  3  6  1  0  0  0  0
  4 21  1  0  0  0  0
  4 22  1  0  0  0  0
  4 24  2  0  0  0  0
  5 21  1  0  0  0  0
  6  7  1  0  0  0  0
  7 21  1  0  0  0  0
  8  9  1  0  0  0  0
  8 22  1  0  0  0  0
  9 23  1  0  0  0  0
 10 12  1  0  0  0  0
 10 23  1  0  0  0  0
 11 14  1  0  0  0  0
 11 22  1  0  0  0  0
 12 27  1  0  0  0  0
 13 14  1  0  0  0  0
 13 27  1  0  0  0  0
 14 23  1  0  0  0  0
 15 16  1  0  0  0  0
 15 17  1  0  0  0  0
 15 18  1  0  0  0  0
 15 25  1  0  0  0  0
 16 19  1  0  0  0  0
 16 20  1  0  0  0  0
 16 26  1  0  0  0  0
  2 28  1  0  0  0  0
  5 29  1  0  0  0  0
  5 30  1  0  0  0  0
  6 31  1  0  0  0  0
  6 32  1  0  0  0  0
  7 33  1  0  0  0  0
  7 34  1  0  0  0  0
  8 35  1  0  0  0  0
  8 36  1  0  0  0  0
  9 37  1  0  0  0  0
  9 38  1  0  0  0  0
 10 39  1  0  0  0  0
 10 40  1  0  0  0  0
 11 41  1  0  0  0  0
 11 42  1  0  0  0  0
 12 43  1  0  0  0  0
 12 44  1  0  0  0  0
 13 45  1  0  0  0  0
 13 46  1  0  0  0  0
 14 47  1  0  0  0  0
 17 48  1  0  0  0  0
 17 49  1  0  0  0  0
 17 50  1  0  0  0  0
 18 51  1  0  0  0  0
 18 52  1  0  0  0  0
 18 53  1  0  0  0  0
 19 54  1  0  0  0  0
 19 55  1  0  0  0  0
 19 56  1  0  0  0  0
 20 57  1  0  0  0  0
 20 58  1  0  0  0  0
 20 59  1  0  0  0  0
M  END
> <id>
EN300-6735368

> <smiles>
CC1(C)OB(OC1(C)C)C2=CCN(CC2)C(=O)N3CCN4CCOCC4C3

> <MDLNUMBER>
MFCD32858681

> <IUPAC Name>
1-{octahydropyrazino[2,1-c][1,4]oxazine-8-carbonyl}-4-(4,4,5,5-tetramethyl-1,3,2-dioxaborolan-2-yl)-1,2,3,6-tetrahydropyridine

> <URL>
https://www.enaminestore.com/catalog/EN300-6735368

> <ROCS_ShapeQuery>
_x0404_0B

> <ROCS_TanimotoCombo>
0.475 

> <ROCS_ShapeTanimoto>
0.404 

> <ROCS_ColorTanimoto>
0.070 

> <ROCS_RefTversky>
0.352 

> <ROCS_RefColorTversky>
0.077 

> <ROCS_RefTverskyCombo>
0.429 

> <ROCS_FitTversky>
1.580 

> <ROCS_FitColorTversky>
0.451 

> <ROCS_FitTverskyCombo>
2.030 

> <ROCS_ColorScore>
-5.562

> <ROCS_Overlap>
2353.087

> <ROCS_Rank>
18                  

$$$$
untitled-dbase-97223_1
  -OEChem-08222312023D

 41 44  0     1  0  0  0  0  0999 V2000
   -9.5479    4.4127  -15.0106 C   0  0  0  0  0  0  0  0  0  0  0  0
   -9.4024    4.1256  -16.3678 C   0  0  0  0  0  0  0  0  0  0  0  0
   -7.4262    5.5681  -15.0274 C   0  0  0  0  0  0  0  0  0  0  0  0
   -8.8712    4.6885  -10.6594 C   0  0  0  0  0  0  0  0  0  0  0  0
   -8.9554    3.8481   -9.5013 C   0  0  0  0  0  0  0  0  0  0  0  0
   -7.2806    5.2810  -16.3846 C   0  0  0  0  0  0  0  0  0  0  0  0
   -8.5598    5.1340  -14.3404 C   0  0  0  0  0  0  0  0  0  0  0  0
   -8.2687    4.5598  -17.0548 C   0  0  0  0  0  0  0  0  0  0  0  0
   -8.9915    4.6022   -8.3429 C   0  0  0  0  0  0  0  0  0  0  0  0
   -8.8236    6.0277  -10.3282 C   0  0  0  0  0  0  0  0  0  0  0  0
   -8.8218    4.3142  -12.0679 C   0  0  0  0  0  0  0  0  0  0  0  0
   -8.7120    6.7589  -12.4420 C   0  0  0  0  0  0  0  0  0  0  0  0
   -9.0350    2.3507   -9.4659 C   0  0  0  0  0  0  0  0  0  0  0  0
   -9.0733    4.0525   -6.9522 C   0  0  0  0  0  0  0  0  0  0  0  0
   -8.7773    1.7863   -8.0596 C   0  0  0  0  0  0  0  0  0  0  0  0
   -9.5357    2.5796   -6.9759 C   0  0  1  0  0  0  0  0  0  0  0  0
   -9.3487    1.9385   -5.6026 C   0  0  0  0  0  0  0  0  0  0  0  0
   -6.0515    5.7638  -17.0850 C   0  0  0  0  0  0  0  0  0  0  0  0
   -8.7547    7.0783  -11.1816 N   0  0  0  0  0  0  0  0  0  0  0  0
   -8.7105    5.4304  -12.9426 N   0  0  0  0  0  0  0  0  0  0  0  0
   -8.8347    3.1356  -12.4126 O   0  0  0  0  0  0  0  0  0  0  0  0
   -5.1967    6.4507  -16.2727 F   0  0  0  0  0  0  0  0  0  0  0  0
   -5.3035    4.7585  -17.6251 F   0  0  0  0  0  0  0  0  0  0  0  0
   -6.3368    6.6073  -18.1178 F   0  0  0  0  0  0  0  0  0  0  0  0
   -8.8918    6.2732   -8.6397 S   0  0  0  0  0  0  0  0  0  0  0  0
   -8.7627    8.1186  -13.5640 S   0  0  0  0  0  0  0  0  0  0  0  0
   -8.1240    4.1862  -18.7337 Cl  0  0  0  0  0  0  0  0  0  0  0  0
  -10.4366    4.0715  -14.4861 H   0  0  0  0  0  0  0  0  0  0  0  0
  -10.1813    3.5623  -16.8758 H   0  0  0  0  0  0  0  0  0  0  0  0
   -6.6555    6.1314  -14.5054 H   0  0  0  0  0  0  0  0  0  0  0  0
  -10.0356    2.0481   -9.7991 H   0  0  0  0  0  0  0  0  0  0  0  0
   -8.3099    1.9123  -10.1604 H   0  0  0  0  0  0  0  0  0  0  0  0
   -8.0815    4.1282   -6.4877 H   0  0  0  0  0  0  0  0  0  0  0  0
   -9.7680    4.6423   -6.3418 H   0  0  0  0  0  0  0  0  0  0  0  0
   -9.0721    0.7305   -8.0384 H   0  0  0  0  0  0  0  0  0  0  0  0
   -7.7003    1.8195   -7.8474 H   0  0  0  0  0  0  0  0  0  0  0  0
  -10.6068    2.5525   -7.2198 H   0  0  0  0  0  0  0  0  0  0  0  0
   -8.2945    1.9496   -5.3304 H   0  0  0  0  0  0  0  0  0  0  0  0
   -9.7003    0.9083   -5.6252 H   0  0  0  0  0  0  0  0  0  0  0  0
   -9.9157    2.4926   -4.8562 H   0  0  0  0  0  0  0  0  0  0  0  0
   -8.8331    9.0741  -12.6330 H   0  0  0  0  0  0  0  0  0  0  0  0
  1  2  1  0  0  0  0
  1  7  2  0  0  0  0
  2  8  2  0  0  0  0
  3  6  2  0  0  0  0
  3  7  1  0  0  0  0
  4  5  1  0  0  0  0
  4 10  2  0  0  0  0
  4 11  1  0  0  0  0
  5  9  2  0  0  0  0
  5 13  1  0  0  0  0
  6  8  1  0  0  0  0
  6 18  1  0  0  0  0
  7 20  1  0  0  0  0
  8 27  1  0  0  0  0
  9 14  1  0  0  0  0
  9 25  1  0  0  0  0
 10 19  1  0  0  0  0
 10 25  1  0  0  0  0
 11 20  1  0  0  0  0
 11 21  2  0  0  0  0
 12 19  2  0  0  0  0
 12 20  1  0  0  0  0
 12 26  1  0  0  0  0
 13 15  1  0  0  0  0
 14 16  1  0  0  0  0
 15 16  1  0  0  0  0
 16 17  1  0  0  0  0
 18 22  1  0  0  0  0
 18 23  1  0  0  0  0
 18 24  1  0  0  0  0
  1 28  1  0  0  0  0
  2 29  1  0  0  0  0
  3 30  1  0  0  0  0
 13 31  1  0  0  0  0
 13 32  1  0  0  0  0
 14 33  1  0  0  0  0
 14 34  1  0  0  0  0
 15 35  1  0  0  0  0
 15 36  1  0  0  0  0
 16 37  1  0  0  0  0
 17 38  1  0  0  0  0
 17 39  1  0  0  0  0
 17 40  1  0  0  0  0
 26 41  1  0  0  0  0
M  END
> <id>
EN300-08199

> <smiles>
CC1CCC2=C(C1)SC=3N=C(S)N(C=4C=CC(Cl)=C(C4)C(F)(F)F)C(=O)C23

> <MDLNUMBER>
MFCD03960567

> <IUPAC Name>
4-[4-chloro-3-(trifluoromethyl)phenyl]-11-methyl-5-sulfanyl-8-thia-4,6-diazatricyclo[7.4.0.0,2,7]trideca-1(9),2(7),5-trien-3-one

> <CAS>
723333-49-1

> <URL>
https://www.enaminestore.com/catalog/EN300-08199

> <ROCS_ShapeQuery>
_x0404_0B

> <ROCS_TanimotoCombo>
0.474 

> <ROCS_ShapeTanimoto>
0.410 

> <ROCS_ColorTanimoto>
0.064 

> <ROCS_RefTversky>
0.356 

> <ROCS_RefColorTversky>
0.069 

> <ROCS_RefTverskyCombo>
0.426 

> <ROCS_FitTversky>
1.577 

> <ROCS_FitColorTversky>
0.478 

> <ROCS_FitTverskyCombo>
2.055 

> <ROCS_ColorScore>
-5.000

> <ROCS_Overlap>
2381.858

> <ROCS_Rank>
19                  

$$$$
untitled-dbase-103708_1201
  -OEChem-08222312023D

 56 59  0     0  0  0  0  0  0999 V2000
   -8.7509    4.0252   -9.0437 B   0  0  0  0  0  0  0  0  0  0  0  0
   -7.2573    5.4990  -19.3475 C   0  0  0  0  0  0  0  0  0  0  0  0
   -5.2496    5.9523  -18.3826 C   0  0  0  0  0  0  0  0  0  0  0  0
   -7.8585    5.3962  -18.1078 C   0  0  0  0  0  0  0  0  0  0  0  0
   -7.0318    5.5842  -17.0093 C   0  0  0  0  0  0  0  0  0  0  0  0
   -9.5946    6.1997  -14.2865 C   0  0  0  0  0  0  0  0  0  0  0  0
   -9.3009    5.0774  -17.8992 C   0  0  0  0  0  0  0  0  0  0  0  0
   -7.5948    5.3801  -15.6276 C   0  0  0  0  0  0  0  0  0  0  0  0
   -8.6593    6.1836  -10.6461 C   0  0  0  0  0  0  0  0  0  0  0  0
   -8.2990    3.8609  -11.6702 C   0  0  0  0  0  0  0  0  0  0  0  0
   -9.8261    5.8735  -16.7077 C   0  0  0  0  0  0  0  0  0  0  0  0
   -9.6155    6.2911  -11.8305 C   0  0  0  0  0  0  0  0  0  0  0  0
   -8.0688    4.6768  -12.9415 C   0  0  0  0  0  0  0  0  0  0  0  0
   -8.1955    4.7297  -10.3991 C   0  0  0  0  0  0  0  0  0  0  0  0
   -9.4089    3.7776   -6.8659 C   0  0  0  0  0  0  0  0  0  0  0  0
   -9.5548    2.4174   -7.6277 C   0  0  0  0  0  0  0  0  0  0  0  0
  -10.6590    4.2144   -6.0892 C   0  0  0  0  0  0  0  0  0  0  0  0
   -8.2021    3.8571   -5.9040 C   0  0  0  0  0  0  0  0  0  0  0  0
  -11.0058    2.0280   -7.9897 C   0  0  0  0  0  0  0  0  0  0  0  0
   -8.9070    1.2164   -6.9241 C   0  0  0  0  0  0  0  0  0  0  0  0
   -5.9502    5.7823  -19.5198 N   0  0  0  0  0  0  0  0  0  0  0  0
   -5.7143    5.8622  -17.1213 N   0  0  0  0  0  0  0  0  0  0  0  0
   -9.0232    5.7264  -15.4841 N   0  0  0  0  0  0  0  0  0  0  0  0
   -9.0234    5.7860  -13.0722 N   0  0  0  0  0  0  0  0  0  0  0  0
  -10.5676    6.9669  -14.3029 O   0  0  0  0  0  0  0  0  0  0  0  0
   -9.1719    4.7524   -7.9325 O   0  0  0  0  0  0  0  0  0  0  0  0
   -8.8444    2.6441   -8.8879 O   0  0  0  0  0  0  0  0  0  0  0  0
   -7.8183    5.3547  -20.2627 H   0  0  0  0  0  0  0  0  0  0  0  0
   -4.1981    6.1872  -18.4939 H   0  0  0  0  0  0  0  0  0  0  0  0
   -9.8570    5.3445  -18.7955 H   0  0  0  0  0  0  0  0  0  0  0  0
   -9.4306    4.0159  -17.7023 H   0  0  0  0  0  0  0  0  0  0  0  0
   -7.4894    4.3149  -15.3581 H   0  0  0  0  0  0  0  0  0  0  0  0
   -6.9925    5.9772  -14.9248 H   0  0  0  0  0  0  0  0  0  0  0  0
   -7.7920    6.8335  -10.8311 H   0  0  0  0  0  0  0  0  0  0  0  0
   -9.1517    6.5774   -9.7451 H   0  0  0  0  0  0  0  0  0  0  0  0
   -9.2910    3.3949  -11.7233 H   0  0  0  0  0  0  0  0  0  0  0  0
   -7.5695    3.0433  -11.6378 H   0  0  0  0  0  0  0  0  0  0  0  0
   -9.9151    6.9477  -16.9780 H   0  0  0  0  0  0  0  0  0  0  0  0
  -10.8582    5.5498  -16.4493 H   0  0  0  0  0  0  0  0  0  0  0  0
  -10.5735    5.8116  -11.6074 H   0  0  0  0  0  0  0  0  0  0  0  0
   -9.8603    7.3485  -12.0113 H   0  0  0  0  0  0  0  0  0  0  0  0
   -7.0597    5.1119  -12.9477 H   0  0  0  0  0  0  0  0  0  0  0  0
   -8.1414    4.0200  -13.8183 H   0  0  0  0  0  0  0  0  0  0  0  0
   -7.1040    4.8011  -10.1860 H   0  0  0  0  0  0  0  0  0  0  0  0
  -10.4567    5.1596   -5.6012 H   0  0  0  0  0  0  0  0  0  0  0  0
  -10.8950    3.4589   -5.3503 H   0  0  0  0  0  0  0  0  0  0  0  0
  -11.4829    4.3243   -6.7832 H   0  0  0  0  0  0  0  0  0  0  0  0
   -8.1855    4.8319   -5.4254 H   0  0  0  0  0  0  0  0  0  0  0  0
   -7.2833    3.7124   -6.4647 H   0  0  0  0  0  0  0  0  0  0  0  0
   -8.2917    3.0828   -5.1476 H   0  0  0  0  0  0  0  0  0  0  0  0
  -11.0044    1.0760   -8.5124 H   0  0  0  0  0  0  0  0  0  0  0  0
  -11.4358    2.7928   -8.6299 H   0  0  0  0  0  0  0  0  0  0  0  0
  -11.5941    1.9424   -7.0808 H   0  0  0  0  0  0  0  0  0  0  0  0
   -9.0625    0.3306   -7.5271 H   0  0  0  0  0  0  0  0  0  0  0  0
   -9.3674    1.0887   -5.9524 H   0  0  0  0  0  0  0  0  0  0  0  0
   -7.8471    1.4061   -6.8102 H   0  0  0  0  0  0  0  0  0  0  0  0
  1 14  1  0  0  0  0
  1 26  1  0  0  0  0
  1 27  1  0  0  0  0
  2  4  2  0  0  0  0
  2 21  1  0  0  0  0
  3 21  2  0  0  0  0
  3 22  1  0  0  0  0
  4  5  1  0  0  0  0
  4  7  1  0  0  0  0
  5  8  1  0  0  0  0
  5 22  2  0  0  0  0
  6 23  1  0  0  0  0
  6 24  1  0  0  0  0
  6 25  2  0  0  0  0
  7 11  1  0  0  0  0
  8 23  1  0  0  0  0
  9 12  1  0  0  0  0
  9 14  1  0  0  0  0
 10 13  1  0  0  0  0
 10 14  1  0  0  0  0
 11 23  1  0  0  0  0
 12 24  1  0  0  0  0
 13 24  1  0  0  0  0
 15 16  1  0  0  0  0
 15 17  1  0  0  0  0
 15 18  1  0  0  0  0
 15 26  1  0  0  0  0
 16 19  1  0  0  0  0
 16 20  1  0  0  0  0
 16 27  1  0  0  0  0
  2 28  1  0  0  0  0
  3 29  1  0  0  0  0
  7 30  1  0  0  0  0
  7 31  1  0  0  0  0
  8 32  1  0  0  0  0
  8 33  1  0  0  0  0
  9 34  1  0  0  0  0
  9 35  1  0  0  0  0
 10 36  1  0  0  0  0
 10 37  1  0  0  0  0
 11 38  1  0  0  0  0
 11 39  1  0  0  0  0
 12 40  1  0  0  0  0
 12 41  1  0  0  0  0
 13 42  1  0  0  0  0
 13 43  1  0  0  0  0
 14 44  1  0  0  0  0
 17 45  1  0  0  0  0
 17 46  1  0  0  0  0
 17 47  1  0  0  0  0
 18 48  1  0  0  0  0
 18 49  1  0  0  0  0
 18 50  1  0  0  0  0
 19 51  1  0  0  0  0
 19 52  1  0  0  0  0
 19 53  1  0  0  0  0
 20 54  1  0  0  0  0
 20 55  1  0  0  0  0
 20 56  1  0  0  0  0
M  END
> <id>
EN300-6735358

> <smiles>
CC1(C)OB(OC1(C)C)C2CCN(CC2)C(=O)N3CCC=4C=NC=NC4C3

> <IUPAC Name>
1-{5H,6H,7H,8H-pyrido[3,4-d]pyrimidine-7-carbonyl}-4-(4,4,5,5-tetramethyl-1,3,2-dioxaborolan-2-yl)piperidine

> <URL>
https://www.enaminestore.com/catalog/EN300-6735358

> <ROCS_ShapeQuery>
_x0404_0B

> <ROCS_TanimotoCombo>
0.472 

> <ROCS_ShapeTanimoto>
0.403 

> <ROCS_ColorTanimoto>
0.068 

> <ROCS_RefTversky>
0.352 

> <ROCS_RefColorTversky>
0.075 

> <ROCS_RefTverskyCombo>
0.427 

> <ROCS_FitTversky>
1.567 

> <ROCS_FitColorTversky>
0.439 

> <ROCS_FitTverskyCombo>
2.006 

> <ROCS_ColorScore>
-5.420

> <ROCS_Overlap>
2353.174

> <ROCS_Rank>
20                  

$$$$
untitled-dbase-154510_1
  -OEChem-08222312023D

 39 41  0     0  0  0  0  0  0999 V2000
   -7.9427    3.2994  -12.8362 C   0  0  0  0  0  0  0  0  0  0  0  0
   -8.8048    1.7489   -8.7033 C   0  0  0  0  0  0  0  0  0  0  0  0
   -8.9518    2.3433   -7.4501 C   0  0  0  0  0  0  0  0  0  0  0  0
   -8.7349    2.5380   -9.8534 C   0  0  0  0  0  0  0  0  0  0  0  0
   -9.0358    3.7306   -7.3395 C   0  0  0  0  0  0  0  0  0  0  0  0
   -8.3509    4.5437  -12.2588 C   0  0  0  0  0  0  0  0  0  0  0  0
   -8.8209    3.9299   -9.7511 C   0  0  0  0  0  0  0  0  0  0  0  0
   -8.7228    4.7969  -10.9076 C   0  0  0  0  0  0  0  0  0  0  0  0
   -8.9857    4.5234   -8.4873 C   0  0  0  0  0  0  0  0  0  0  0  0
   -9.0296    6.1219  -10.7017 C   0  0  0  0  0  0  0  0  0  0  0  0
   -8.3885    5.6909  -13.0242 C   0  0  0  0  0  0  0  0  0  0  0  0
   -8.2363    5.0426  -15.4465 C   0  0  0  0  0  0  0  0  0  0  0  0
   -9.4949    6.6859   -9.4066 C   0  0  0  0  0  0  0  0  0  0  0  0
   -9.3732    4.4771  -18.0091 C   0  0  0  0  0  0  0  0  0  0  0  0
   -7.4458    5.7861  -18.9477 C   0  0  0  0  0  0  0  0  0  0  0  0
   -7.0132    3.6791  -17.6509 C   0  0  0  0  0  0  0  0  0  0  0  0
   -7.9202    4.9001  -17.7979 C   0  0  0  0  0  0  0  0  0  0  0  0
   -7.6117    2.2904  -13.3043 N   0  0  0  0  0  0  0  0  0  0  0  0
   -8.1074    5.9129  -14.3463 N   0  0  0  0  0  0  0  0  0  0  0  0
   -8.6385    3.8860  -15.4138 O   0  0  0  0  0  0  0  0  0  0  0  0
   -9.0389    5.8844   -8.2957 O   0  0  0  0  0  0  0  0  0  0  0  0
   -7.8410    5.6743  -16.5954 O   0  0  0  0  0  0  0  0  0  0  0  0
   -8.8759    7.0584  -12.1132 S   0  0  0  0  0  0  0  0  0  0  0  0
   -8.7421    0.6674   -8.7848 H   0  0  0  0  0  0  0  0  0  0  0  0
   -8.9972    1.7244   -6.5587 H   0  0  0  0  0  0  0  0  0  0  0  0
   -8.6302    2.0238  -10.8011 H   0  0  0  0  0  0  0  0  0  0  0  0
   -9.1439    4.1854   -6.3586 H   0  0  0  0  0  0  0  0  0  0  0  0
   -9.1087    7.6986   -9.2511 H   0  0  0  0  0  0  0  0  0  0  0  0
  -10.5895    6.7273   -9.3711 H   0  0  0  0  0  0  0  0  0  0  0  0
   -9.7175    3.8410  -17.1858 H   0  0  0  0  0  0  0  0  0  0  0  0
  -10.0390    5.3433  -18.0811 H   0  0  0  0  0  0  0  0  0  0  0  0
   -9.4784    3.8827  -18.9239 H   0  0  0  0  0  0  0  0  0  0  0  0
   -6.4037    6.0919  -18.8003 H   0  0  0  0  0  0  0  0  0  0  0  0
   -8.0343    6.7094  -18.9974 H   0  0  0  0  0  0  0  0  0  0  0  0
   -7.5235    5.2731  -19.9117 H   0  0  0  0  0  0  0  0  0  0  0  0
   -5.9709    3.9822  -17.4994 H   0  0  0  0  0  0  0  0  0  0  0  0
   -7.3165    3.0507  -16.8073 H   0  0  0  0  0  0  0  0  0  0  0  0
   -7.0288    3.0702  -18.5621 H   0  0  0  0  0  0  0  0  0  0  0  0
   -7.7472    6.8594  -14.5699 H   0  0  0  0  0  0  0  0  0  0  0  0
  1  6  1  0  0  0  0
  1 18  3  0  0  0  0
  2  3  2  0  0  0  0
  2  4  1  0  0  0  0
  3  5  1  0  0  0  0
  4  7  2  0  0  0  0
  5  9  2  0  0  0  0
  6  8  1  0  0  0  0
  6 11  2  0  0  0  0
  7  8  1  0  0  0  0
  7  9  1  0  0  0  0
  8 10  2  0  0  0  0
  9 21  1  0  0  0  0
 10 13  1  0  0  0  0
 10 23  1  0  0  0  0
 11 19  1  0  0  0  0
 11 23  1  0  0  0  0
 12 19  1  0  0  0  0
 12 20  2  0  0  0  0
 12 22  1  0  0  0  0
 13 21  1  0  0  0  0
 14 17  1  0  0  0  0
 15 17  1  0  0  0  0
 16 17  1  0  0  0  0
 17 22  1  0  0  0  0
  2 24  1  0  0  0  0
  3 25  1  0  0  0  0
  4 26  1  0  0  0  0
  5 27  1  0  0  0  0
 13 28  1  0  0  0  0
 13 29  1  0  0  0  0
 14 30  1  0  0  0  0
 14 31  1  0  0  0  0
 14 32  1  0  0  0  0
 15 33  1  0  0  0  0
 15 34  1  0  0  0  0
 15 35  1  0  0  0  0
 16 36  1  0  0  0  0
 16 37  1  0  0  0  0
 16 38  1  0  0  0  0
 19 39  1  0  0  0  0
M  END
> <id>
EN300-28295221

> <smiles>
CC(C)(C)OC(=O)NC=1SC=2COC=3C=CC=CC3C2C1C#N

> <IUPAC Name>
tert-butyl N-{1-cyano-4H-thieno[2,3-c]chromen-2-yl}carbamate

> <CAS>
2680711-49-1

> <URL>
https://www.enaminestore.com/catalog/EN300-28295221

> <ROCS_ShapeQuery>
_x0404_0B

> <ROCS_TanimotoCombo>
0.471 

> <ROCS_ShapeTanimoto>
0.383 

> <ROCS_ColorTanimoto>
0.088 

> <ROCS_RefTversky>
0.332 

> <ROCS_RefColorTversky>
0.094 

> <ROCS_RefTverskyCombo>
0.426 

> <ROCS_FitTversky>
1.662 

> <ROCS_FitColorTversky>
0.594 

> <ROCS_FitTverskyCombo>
2.256 

> <ROCS_ColorScore>
-6.769

> <ROCS_Overlap>
2219.778

> <ROCS_Rank>
21                  

$$$$
untitled-dbase-103099_546
  -OEChem-08222312023D

 59 62  0     0  0  0  0  0  0999 V2000
   -8.7539    4.2962   -9.2747 B   0  0  0  0  0  0  0  0  0  0  0  0
   -8.8152    6.2635  -14.2498 C   0  0  0  0  0  0  0  0  0  0  0  0
   -5.9839    6.2988  -18.2503 C   0  0  0  0  0  0  0  0  0  0  0  0
   -5.6922    5.2540  -17.2208 C   0  0  0  0  0  0  0  0  0  0  0  0
   -9.2303    6.4548  -10.8159 C   0  0  0  0  0  0  0  0  0  0  0  0
   -7.2258    5.0069  -11.3754 C   0  0  0  0  0  0  0  0  0  0  0  0
   -9.9241    5.9106  -12.0652 C   0  0  0  0  0  0  0  0  0  0  0  0
   -7.9608    4.5135  -12.6288 C   0  0  0  0  0  0  0  0  0  0  0  0
   -8.7381    4.1653  -15.6633 C   0  0  0  0  0  0  0  0  0  0  0  0
   -7.9159    6.3923  -16.5338 C   0  0  0  0  0  0  0  0  0  0  0  0
   -9.6703    3.9515  -16.8591 C   0  0  0  0  0  0  0  0  0  0  0  0
   -7.9193    4.5881  -18.3703 C   0  0  0  0  0  0  0  0  0  0  0  0
   -8.1856    5.4653  -10.2570 C   0  0  0  0  0  0  0  0  0  0  0  0
   -7.1314    5.5951  -17.5525 C   0  0  0  0  0  0  0  0  0  0  0  0
   -9.6497    3.2824   -7.4290 C   0  0  0  0  0  0  0  0  0  0  0  0
   -9.3447    2.2137   -8.5318 C   0  0  0  0  0  0  0  0  0  0  0  0
  -11.1445    3.6392   -7.2658 C   0  0  0  0  0  0  0  0  0  0  0  0
   -9.0919    2.9458   -6.0387 C   0  0  0  0  0  0  0  0  0  0  0  0
  -10.5156    1.2749   -8.8557 C   0  0  0  0  0  0  0  0  0  0  0  0
   -8.0980    1.3407   -8.2634 C   0  0  0  0  0  0  0  0  0  0  0  0
   -8.9491    5.5045  -13.0776 N   0  0  0  0  0  0  0  0  0  0  0  0
   -8.4116    5.5805  -15.4126 N   0  0  0  0  0  0  0  0  0  0  0  0
   -9.0357    7.4813  -14.2628 O   0  0  0  0  0  0  0  0  0  0  0  0
   -8.9715    4.4871   -7.9120 O   0  0  0  0  0  0  0  0  0  0  0  0
   -9.0591    3.0135   -9.7248 O   0  0  0  0  0  0  0  0  0  0  0  0
   -9.3086    4.6421  -18.0515 O   0  0  0  0  0  0  0  0  0  0  0  0
   -5.7745    7.3304  -17.9914 H   0  0  0  0  0  0  0  0  0  0  0  0
   -5.7729    6.0585  -19.2856 H   0  0  0  0  0  0  0  0  0  0  0  0
   -5.2897    4.3083  -17.5660 H   0  0  0  0  0  0  0  0  0  0  0  0
   -5.2845    5.5799  -16.2710 H   0  0  0  0  0  0  0  0  0  0  0  0
   -8.7544    7.4128  -11.0665 H   0  0  0  0  0  0  0  0  0  0  0  0
   -9.9870    6.6764  -10.0504 H   0  0  0  0  0  0  0  0  0  0  0  0
   -6.5810    4.1953  -11.0049 H   0  0  0  0  0  0  0  0  0  0  0  0
   -6.5512    5.8258  -11.6647 H   0  0  0  0  0  0  0  0  0  0  0  0
  -10.6176    5.1099  -11.8156 H   0  0  0  0  0  0  0  0  0  0  0  0
  -10.5350    6.6997  -12.5180 H   0  0  0  0  0  0  0  0  0  0  0  0
   -7.2599    4.3499  -13.4503 H   0  0  0  0  0  0  0  0  0  0  0  0
   -8.4574    3.5658  -12.4144 H   0  0  0  0  0  0  0  0  0  0  0  0
   -9.2297    3.7710  -14.7596 H   0  0  0  0  0  0  0  0  0  0  0  0
   -7.7938    3.6113  -15.7834 H   0  0  0  0  0  0  0  0  0  0  0  0
   -7.2901    7.1798  -16.1060 H   0  0  0  0  0  0  0  0  0  0  0  0
   -8.7595    6.8544  -17.0491 H   0  0  0  0  0  0  0  0  0  0  0  0
   -9.6621    2.8759  -17.1138 H   0  0  0  0  0  0  0  0  0  0  0  0
  -10.7246    4.1799  -16.6062 H   0  0  0  0  0  0  0  0  0  0  0  0
   -7.7549    4.7189  -19.4509 H   0  0  0  0  0  0  0  0  0  0  0  0
   -7.5870    3.5673  -18.1343 H   0  0  0  0  0  0  0  0  0  0  0  0
   -7.5564    6.0674   -9.5654 H   0  0  0  0  0  0  0  0  0  0  0  0
  -11.2449    4.3813   -6.4837 H   0  0  0  0  0  0  0  0  0  0  0  0
  -11.6920    2.7438   -6.9997 H   0  0  0  0  0  0  0  0  0  0  0  0
  -11.5150    4.0357   -8.2029 H   0  0  0  0  0  0  0  0  0  0  0  0
   -9.3512    3.7392   -5.3438 H   0  0  0  0  0  0  0  0  0  0  0  0
   -8.0113    2.8526   -6.0962 H   0  0  0  0  0  0  0  0  0  0  0  0
   -9.5195    2.0084   -5.6954 H   0  0  0  0  0  0  0  0  0  0  0  0
  -10.2126    0.5724   -9.6265 H   0  0  0  0  0  0  0  0  0  0  0  0
  -11.3599    1.8595   -9.2091 H   0  0  0  0  0  0  0  0  0  0  0  0
  -10.8003    0.7305   -7.9600 H   0  0  0  0  0  0  0  0  0  0  0  0
   -7.9778    0.6400   -9.0801 H   0  0  0  0  0  0  0  0  0  0  0  0
   -8.2384    0.8051   -7.3330 H   0  0  0  0  0  0  0  0  0  0  0  0
   -7.2286    1.9824   -8.1945 H   0  0  0  0  0  0  0  0  0  0  0  0
  1 13  1  0  0  0  0
  1 24  1  0  0  0  0
  1 25  1  0  0  0  0
  2 21  1  0  0  0  0
  2 22  1  0  0  0  0
  2 23  2  0  0  0  0
  3  4  1  0  0  0  0
  3 14  1  0  0  0  0
  4 14  1  0  0  0  0
  5  7  1  0  0  0  0
  5 13  1  0  0  0  0
  6  8  1  0  0  0  0
  6 13  1  0  0  0  0
  7 21  1  0  0  0  0
  8 21  1  0  0  0  0
  9 11  1  0  0  0  0
  9 22  1  0  0  0  0
 10 14  1  0  0  0  0
 10 22  1  0  0  0  0
 11 26  1  0  0  0  0
 12 14  1  0  0  0  0
 12 26  1  0  0  0  0
 15 16  1  0  0  0  0
 15 17  1  0  0  0  0
 15 18  1  0  0  0  0
 15 24  1  0  0  0  0
 16 19  1  0  0  0  0
 16 20  1  0  0  0  0
 16 25  1  0  0  0  0
  3 27  1  0  0  0  0
  3 28  1  0  0  0  0
  4 29  1  0  0  0  0
  4 30  1  0  0  0  0
  5 31  1  0  0  0  0
  5 32  1  0  0  0  0
  6 33  1  0  0  0  0
  6 34  1  0  0  0  0
  7 35  1  0  0  0  0
  7 36  1  0  0  0  0
  8 37  1  0  0  0  0
  8 38  1  0  0  0  0
  9 39  1  0  0  0  0
  9 40  1  0  0  0  0
 10 41  1  0  0  0  0
 10 42  1  0  0  0  0
 11 43  1  0  0  0  0
 11 44  1  0  0  0  0
 12 45  1  0  0  0  0
 12 46  1  0  0  0  0
 13 47  1  0  0  0  0
 17 48  1  0  0  0  0
 17 49  1  0  0  0  0
 17 50  1  0  0  0  0
 18 51  1  0  0  0  0
 18 52  1  0  0  0  0
 18 53  1  0  0  0  0
 19 54  1  0  0  0  0
 19 55  1  0  0  0  0
 19 56  1  0  0  0  0
 20 57  1  0  0  0  0
 20 58  1  0  0  0  0
 20 59  1  0  0  0  0
M  END
> <id>
EN300-6735297

> <smiles>
CC1(C)OB(OC1(C)C)C2CCN(CC2)C(=O)N3CCOCC4(CC4)C3

> <IUPAC Name>
8-[4-(tetramethyl-1,3,2-dioxaborolan-2-yl)piperidine-1-carbonyl]-5-oxa-8-azaspiro[2.6]nonane

> <URL>
https://www.enaminestore.com/catalog/EN300-6735297

> <ROCS_ShapeQuery>
_x0404_0B

> <ROCS_TanimotoCombo>
0.471 

> <ROCS_ShapeTanimoto>
0.405 

> <ROCS_ColorTanimoto>
0.065 

> <ROCS_RefTversky>
0.350 

> <ROCS_RefColorTversky>
0.070 

> <ROCS_RefTverskyCombo>
0.421 

> <ROCS_FitTversky>
1.630 

> <ROCS_FitColorTversky>
0.487 

> <ROCS_FitTverskyCombo>
2.117 

> <ROCS_ColorScore>
-5.077

> <ROCS_Overlap>
2341.516

> <ROCS_Rank>
22                  

$$$$
untitled-dbase-128768_0
  -OEChem-08222312023D

 35 38  0     0  0  0  0  0  0999 V2000
   -7.7558    2.9238  -13.4669 C   0  0  0  0  0  0  0  0  0  0  0  0
   -8.7653    7.7343  -13.0024 C   0  0  0  0  0  0  0  0  0  0  0  0
   -9.2008    2.8751   -6.9730 C   0  0  0  0  0  0  0  0  0  0  0  0
   -9.6061    4.2049   -6.9280 C   0  0  0  0  0  0  0  0  0  0  0  0
   -9.1295    5.2910  -15.5934 C   0  0  0  0  0  0  0  0  0  0  0  0
   -6.7984    5.7770  -15.1848 C   0  0  0  0  0  0  0  0  0  0  0  0
   -8.7121    2.3247   -8.1588 C   0  0  0  0  0  0  0  0  0  0  0  0
   -9.5206    5.0284   -8.0574 C   0  0  0  0  0  0  0  0  0  0  0  0
   -8.9212    5.4440  -16.9640 C   0  0  0  0  0  0  0  0  0  0  0  0
   -6.5901    5.9298  -16.5555 C   0  0  0  0  0  0  0  0  0  0  0  0
   -8.0681    5.4576  -14.7037 C   0  0  0  0  0  0  0  0  0  0  0  0
   -8.6259    3.1383   -9.3032 C   0  0  0  0  0  0  0  0  0  0  0  0
   -9.0022    4.4810   -9.2428 C   0  0  0  0  0  0  0  0  0  0  0  0
   -7.6515    5.7633  -17.4452 C   0  0  0  0  0  0  0  0  0  0  0  0
   -8.3508    3.8848  -11.2897 C   0  0  0  0  0  0  0  0  0  0  0  0
   -8.1299    4.0653  -12.6903 C   0  0  0  0  0  0  0  0  0  0  0  0
   -8.6611    6.4443  -12.3936 C   0  0  0  0  0  0  0  0  0  0  0  0
   -8.2897    5.2947  -13.2427 C   0  0  0  0  0  0  0  0  0  0  0  0
   -8.8754    6.2876  -11.0625 C   0  0  0  0  0  0  0  0  0  0  0  0
   -7.4524    1.9979  -14.0965 N   0  0  0  0  0  0  0  0  0  0  0  0
   -8.8497    8.7807  -13.4961 N   0  0  0  0  0  0  0  0  0  0  0  0
   -8.2244    2.7958  -10.5614 N   0  0  0  0  0  0  0  0  0  0  0  0
   -8.7562    4.9824  -10.5234 N   0  0  0  0  0  0  0  0  0  0  0  0
   -9.1663    7.3297  -10.2179 N   0  0  0  0  0  0  0  0  0  0  0  0
   -7.4510    5.9085  -18.7615 F   0  0  0  0  0  0  0  0  0  0  0  0
   -9.2776    2.2559   -6.0836 H   0  0  0  0  0  0  0  0  0  0  0  0
  -10.0008    4.6131   -6.0010 H   0  0  0  0  0  0  0  0  0  0  0  0
  -10.1249    5.0417  -15.2333 H   0  0  0  0  0  0  0  0  0  0  0  0
   -5.9609    5.9100  -14.5041 H   0  0  0  0  0  0  0  0  0  0  0  0
   -8.4156    1.2808   -8.1961 H   0  0  0  0  0  0  0  0  0  0  0  0
   -9.8698    6.0507   -7.9862 H   0  0  0  0  0  0  0  0  0  0  0  0
   -9.7472    5.3143  -17.6568 H   0  0  0  0  0  0  0  0  0  0  0  0
   -5.6015    6.1781  -16.9305 H   0  0  0  0  0  0  0  0  0  0  0  0
   -9.3091    7.1280   -9.2563 H   0  0  0  0  0  0  0  0  0  0  0  0
   -9.2224    8.2434  -10.6022 H   0  0  0  0  0  0  0  0  0  0  0  0
  1 16  1  0  0  0  0
  1 20  3  0  0  0  0
  2 17  1  0  0  0  0
  2 21  3  0  0  0  0
  3  4  2  0  0  0  0
  3  7  1  0  0  0  0
  4  8  1  0  0  0  0
  5  9  1  0  0  0  0
  5 11  2  0  0  0  0
  6 10  2  0  0  0  0
  6 11  1  0  0  0  0
  7 12  2  0  0  0  0
  8 13  2  0  0  0  0
  9 14  2  0  0  0  0
 10 14  1  0  0  0  0
 11 18  1  0  0  0  0
 12 13  1  0  0  0  0
 12 22  1  0  0  0  0
 13 23  1  0  0  0  0
 14 25  1  0  0  0  0
 15 16  1  0  0  0  0
 15 22  2  0  0  0  0
 15 23  1  0  0  0  0
 16 18  2  0  0  0  0
 17 18  1  0  0  0  0
 17 19  2  0  0  0  0
 19 23  1  0  0  0  0
 19 24  1  0  0  0  0
  3 26  1  0  0  0  0
  4 27  1  0  0  0  0
  5 28  1  0  0  0  0
  6 29  1  0  0  0  0
  7 30  1  0  0  0  0
  8 31  1  0  0  0  0
  9 32  1  0  0  0  0
 10 33  1  0  0  0  0
 24 34  1  0  0  0  0
 24 35  1  0  0  0  0
M  END
> <id>
EN300-02856

> <smiles>
NC1=C(C#N)C(=C(C#N)C2=NC=3C=CC=CC3N12)C=4C=CC(F)=CC4

> <MDLNUMBER>
MFCD00694293

> <IUPAC Name>
13-amino-11-(4-fluorophenyl)-1,8-diazatricyclo[7.4.0.0,2,7]trideca-2(7),3,5,8,10,12-hexaene-10,12-dicarbonitrile

> <CAS>
300719-01-1

> <URL>
https://www.enaminestore.com/catalog/EN300-02856

> <ROCS_ShapeQuery>
_x0404_0B

> <ROCS_TanimotoCombo>
0.471 

> <ROCS_ShapeTanimoto>
0.382 

> <ROCS_ColorTanimoto>
0.089 

> <ROCS_RefTversky>
0.337 

> <ROCS_RefColorTversky>
0.097 

> <ROCS_RefTverskyCombo>
0.434 

> <ROCS_FitTversky>
1.532 

> <ROCS_FitColorTversky>
0.526 

> <ROCS_FitTverskyCombo>
2.057 

> <ROCS_ColorScore>
-7.005

> <ROCS_Overlap>
2252.837

> <ROCS_Rank>
23                  

$$$$
untitled-dbase-103102_847
  -OEChem-08222312023D

 60 63  0     1  0  0  0  0  0999 V2000
   -8.9030    4.1442   -9.0868 B   0  0  0  0  0  0  0  0  0  0  0  0
   -8.6332    6.6309  -14.2909 C   0  0  0  0  0  0  0  0  0  0  0  0
  -10.1476    4.5995  -18.9045 C   0  0  0  0  0  0  0  0  0  0  0  0
  -10.2931    4.5096  -17.4000 C   0  0  0  0  0  0  0  0  0  0  0  0
   -7.4274    5.2102  -11.0687 C   0  0  0  0  0  0  0  0  0  0  0  0
   -9.8678    5.9514  -10.8005 C   0  0  0  0  0  0  0  0  0  0  0  0
   -8.7435    5.1523  -19.0566 C   0  0  0  0  0  0  0  0  0  0  0  0
   -7.8849    4.9799  -12.5105 C   0  0  0  0  0  0  0  0  0  0  0  0
   -9.4984    6.8173  -11.9988 C   0  0  0  0  0  0  0  0  0  0  0  0
   -7.4698    6.4154  -16.4414 C   0  0  0  0  0  0  0  0  0  0  0  0
   -6.9279    5.3954  -17.4394 C   0  0  0  0  0  0  0  0  0  0  0  0
   -8.5836    4.3924  -15.5040 C   0  0  0  0  0  0  0  0  0  0  0  0
   -8.6163    5.3858  -10.0957 C   0  0  0  0  0  0  0  0  0  0  0  0
   -8.9127    4.0275  -16.9561 C   0  0  2  0  0  0  0  0  0  0  0  0
   -9.2917    3.0021   -7.1422 C   0  0  0  0  0  0  0  0  0  0  0  0
   -9.2664    2.0079   -8.3515 C   0  0  0  0  0  0  0  0  0  0  0  0
  -10.5182    2.8686   -6.2285 C   0  0  0  0  0  0  0  0  0  0  0  0
   -8.0307    2.9712   -6.2495 C   0  0  0  0  0  0  0  0  0  0  0  0
  -10.6531    1.4914   -8.7970 C   0  0  0  0  0  0  0  0  0  0  0  0
   -8.3499    0.7909   -8.1614 C   0  0  0  0  0  0  0  0  0  0  0  0
   -8.7310    6.0777  -13.0040 N   0  0  0  0  0  0  0  0  0  0  0  0
   -8.2009    5.7989  -15.3347 N   0  0  0  0  0  0  0  0  0  0  0  0
   -7.9695    4.5222  -17.9768 N   0  0  1  0  0  0  0  0  0  0  0  0
   -8.9173    7.8188  -14.4982 O   0  0  0  0  0  0  0  0  0  0  0  0
   -9.3368    4.3218   -7.7748 O   0  0  0  0  0  0  0  0  0  0  0  0
   -8.7335    2.8111   -9.4539 O   0  0  0  0  0  0  0  0  0  0  0  0
  -10.2345    3.6248  -19.3729 H   0  0  0  0  0  0  0  0  0  0  0  0
  -10.8923    5.2700  -19.3212 H   0  0  0  0  0  0  0  0  0  0  0  0
  -10.5225    5.4940  -16.9795 H   0  0  0  0  0  0  0  0  0  0  0  0
  -11.0814    3.8166  -17.0976 H   0  0  0  0  0  0  0  0  0  0  0  0
   -6.8022    4.3609  -10.7502 H   0  0  0  0  0  0  0  0  0  0  0  0
   -6.7756    6.0967  -11.0420 H   0  0  0  0  0  0  0  0  0  0  0  0
  -10.4646    6.5460  -10.1004 H   0  0  0  0  0  0  0  0  0  0  0  0
  -10.5062    5.1264  -11.1384 H   0  0  0  0  0  0  0  0  0  0  0  0
   -8.3349    4.8862  -20.0483 H   0  0  0  0  0  0  0  0  0  0  0  0
   -8.7222    6.2519  -18.9754 H   0  0  0  0  0  0  0  0  0  0  0  0
   -7.0168    4.9166  -13.1808 H   0  0  0  0  0  0  0  0  0  0  0  0
   -8.4209    4.0255  -12.5881 H   0  0  0  0  0  0  0  0  0  0  0  0
  -10.4316    7.2130  -12.4252 H   0  0  0  0  0  0  0  0  0  0  0  0
   -8.8856    7.6776  -11.6806 H   0  0  0  0  0  0  0  0  0  0  0  0
   -6.6440    7.0229  -16.0419 H   0  0  0  0  0  0  0  0  0  0  0  0
   -8.1647    7.1111  -16.9381 H   0  0  0  0  0  0  0  0  0  0  0  0
   -6.4351    5.9373  -18.2736 H   0  0  0  0  0  0  0  0  0  0  0  0
   -6.1236    4.7956  -16.9588 H   0  0  0  0  0  0  0  0  0  0  0  0
   -9.4727    4.2321  -14.8560 H   0  0  0  0  0  0  0  0  0  0  0  0
   -7.8270    3.6996  -15.0853 H   0  0  0  0  0  0  0  0  0  0  0  0
   -8.3004    6.1857   -9.3862 H   0  0  0  0  0  0  0  0  0  0  0  0
   -8.9575    2.8783  -16.9984 H   0  0  0  0  0  0  0  0  0  0  0  0
  -10.4410    3.5947   -5.4289 H   0  0  0  0  0  0  0  0  0  0  0  0
  -10.5429    1.8669   -5.8182 H   0  0  0  0  0  0  0  0  0  0  0  0
  -11.4119    3.0528   -6.8115 H   0  0  0  0  0  0  0  0  0  0  0  0
   -8.1415    3.6902   -5.4431 H   0  0  0  0  0  0  0  0  0  0  0  0
   -7.1597    3.2262   -6.8460 H   0  0  0  0  0  0  0  0  0  0  0  0
   -7.9071    1.9755   -5.8336 H   0  0  0  0  0  0  0  0  0  0  0  0
  -10.5330    0.8125   -9.6363 H   0  0  0  0  0  0  0  0  0  0  0  0
  -11.2724    2.3319   -9.0960 H   0  0  0  0  0  0  0  0  0  0  0  0
  -11.1256    0.9677   -7.9712 H   0  0  0  0  0  0  0  0  0  0  0  0
   -8.4029    0.1699   -9.0468 H   0  0  0  0  0  0  0  0  0  0  0  0
   -8.6836    0.2321   -7.2961 H   0  0  0  0  0  0  0  0  0  0  0  0
   -7.3347    1.1362   -8.0110 H   0  0  0  0  0  0  0  0  0  0  0  0
  1 13  1  0  0  0  0
  1 25  1  0  0  0  0
  1 26  1  0  0  0  0
  2 21  1  0  0  0  0
  2 22  1  0  0  0  0
  2 24  2  0  0  0  0
  3  4  1  0  0  0  0
  3  7  1  0  0  0  0
  4 14  1  0  0  0  0
  5  8  1  0  0  0  0
  5 13  1  0  0  0  0
  6  9  1  0  0  0  0
  6 13  1  0  0  0  0
  7 23  1  0  0  0  0
  8 21  1  0  0  0  0
  9 21  1  0  0  0  0
 10 11  1  0  0  0  0
 10 22  1  0  0  0  0
 11 23  1  0  0  0  0
 12 14  1  0  0  0  0
 12 22  1  0  0  0  0
 14 23  1  0  0  0  0
 15 16  1  0  0  0  0
 15 17  1  0  0  0  0
 15 18  1  0  0  0  0
 15 25  1  0  0  0  0
 16 19  1  0  0  0  0
 16 20  1  0  0  0  0
 16 26  1  0  0  0  0
  3 27  1  0  0  0  0
  3 28  1  0  0  0  0
  4 29  1  0  0  0  0
  4 30  1  0  0  0  0
  5 31  1  0  0  0  0
  5 32  1  0  0  0  0
  6 33  1  0  0  0  0
  6 34  1  0  0  0  0
  7 35  1  0  0  0  0
  7 36  1  0  0  0  0
  8 37  1  0  0  0  0
  8 38  1  0  0  0  0
  9 39  1  0  0  0  0
  9 40  1  0  0  0  0
 10 41  1  0  0  0  0
 10 42  1  0  0  0  0
 11 43  1  0  0  0  0
 11 44  1  0  0  0  0
 12 45  1  0  0  0  0
 12 46  1  0  0  0  0
 13 47  1  0  0  0  0
 14 48  1  0  0  0  0
 17 49  1  0  0  0  0
 17 50  1  0  0  0  0
 17 51  1  0  0  0  0
 18 52  1  0  0  0  0
 18 53  1  0  0  0  0
 18 54  1  0  0  0  0
 19 55  1  0  0  0  0
 19 56  1  0  0  0  0
 19 57  1  0  0  0  0
 20 58  1  0  0  0  0
 20 59  1  0  0  0  0
 20 60  1  0  0  0  0
M  END
> <id>
EN300-6735547

> <smiles>
CC1(C)OB(OC1(C)C)C2CCN(CC2)C(=O)N3CCN4CCCC4C3

> <MDLNUMBER>
MFCD32858502

> <IUPAC Name>
1-{octahydropyrrolo[1,2-a]piperazine-2-carbonyl}-4-(tetramethyl-1,3,2-dioxaborolan-2-yl)piperidine

> <URL>
https://www.enaminestore.com/catalog/EN300-6735547

> <ROCS_ShapeQuery>
_x0404_0B

> <ROCS_TanimotoCombo>
0.471 

> <ROCS_ShapeTanimoto>
0.396 

> <ROCS_ColorTanimoto>
0.075 

> <ROCS_RefTversky>
0.345 

> <ROCS_RefColorTversky>
0.080 

> <ROCS_RefTverskyCombo>
0.425 

> <ROCS_FitTversky>
1.596 

> <ROCS_FitColorTversky>
0.510 

> <ROCS_FitTverskyCombo>
2.106 

> <ROCS_ColorScore>
-5.810

> <ROCS_Overlap>
2305.207

> <ROCS_Rank>
24                  

$$$$
untitled-dbase-104214_344
  -OEChem-08222312023D

 51 53  0     1  0  0  0  0  0999 V2000
   -8.4957    5.4758   -8.7776 C   0  0  0  0  0  0  0  0  0  0  0  0
   -8.7491    4.2822   -8.1029 C   0  0  0  0  0  0  0  0  0  0  0  0
   -9.1832    3.1853  -10.2088 C   0  0  0  0  0  0  0  0  0  0  0  0
   -8.5957    5.5363  -10.1741 C   0  0  0  0  0  0  0  0  0  0  0  0
   -8.9274    4.3788  -10.8995 C   0  0  0  0  0  0  0  0  0  0  0  0
   -9.0953    3.1385   -8.8176 C   0  0  0  0  0  0  0  0  0  0  0  0
   -8.2447    5.8136  -14.3491 C   0  0  0  0  0  0  0  0  0  0  0  0
   -7.9962    5.0748  -17.3240 C   0  0  0  0  0  0  0  0  0  0  0  0
   -8.2959    6.8234  -10.8949 C   0  0  0  0  0  0  0  0  0  0  0  0
   -9.0244    4.3903  -12.4060 C   0  0  0  0  0  0  0  0  0  0  0  0
   -5.1219    4.2546  -15.2694 C   0  0  0  0  0  0  0  0  0  0  0  0
   -6.1458    4.4842  -14.1636 C   0  0  0  0  0  0  0  0  0  0  0  0
   -8.9964    6.8725  -12.2470 C   0  0  0  0  0  0  0  0  0  0  0  0
   -5.6417    5.1136  -16.4090 C   0  0  0  0  0  0  0  0  0  0  0  0
   -7.4679    4.6639  -14.9110 C   0  0  2  0  0  0  0  0  0  0  0  0
   -9.6963    2.9183  -18.1206 C   0  0  0  0  0  0  0  0  0  0  0  0
  -11.5689    4.2777  -17.1436 C   0  0  0  0  0  0  0  0  0  0  0  0
  -10.2536    5.1748  -19.0861 C   0  0  0  0  0  0  0  0  0  0  0  0
  -10.1982    4.3287  -17.8149 C   0  0  0  0  0  0  0  0  0  0  0  0
   -8.6864    5.6775  -13.0308 N   0  0  0  0  0  0  0  0  0  0  0  0
   -7.0894    5.0188  -16.2746 N   0  0  0  0  0  0  0  0  0  0  0  0
   -8.4508    6.8059  -15.0520 O   0  0  0  0  0  0  0  0  0  0  0  0
   -7.6797    5.2127  -18.5037 O   0  0  0  0  0  0  0  0  0  0  0  0
   -9.3436    1.9735   -8.1593 O   0  0  0  0  0  0  0  0  0  0  0  0
   -9.2903    4.9462  -16.8955 O   0  0  0  0  0  0  0  0  0  0  0  0
   -8.2220    6.3605   -8.2084 H   0  0  0  0  0  0  0  0  0  0  0  0
   -8.6729    4.2505   -7.0194 H   0  0  0  0  0  0  0  0  0  0  0  0
   -9.4484    2.2862  -10.7608 H   0  0  0  0  0  0  0  0  0  0  0  0
   -8.6323    7.6762  -10.2935 H   0  0  0  0  0  0  0  0  0  0  0  0
   -7.2107    6.9123  -11.0266 H   0  0  0  0  0  0  0  0  0  0  0  0
   -8.3705    3.6088  -12.8041 H   0  0  0  0  0  0  0  0  0  0  0  0
  -10.0554    4.1620  -12.7018 H   0  0  0  0  0  0  0  0  0  0  0  0
   -4.1320    4.6031  -14.9516 H   0  0  0  0  0  0  0  0  0  0  0  0
   -5.0406    3.1991  -15.5457 H   0  0  0  0  0  0  0  0  0  0  0  0
   -6.2077    3.5940  -13.5235 H   0  0  0  0  0  0  0  0  0  0  0  0
   -5.8775    5.3420  -13.5361 H   0  0  0  0  0  0  0  0  0  0  0  0
  -10.0862    6.9042  -12.1234 H   0  0  0  0  0  0  0  0  0  0  0  0
   -8.7035    7.7810  -12.7829 H   0  0  0  0  0  0  0  0  0  0  0  0
   -5.3138    6.1506  -16.3473 H   0  0  0  0  0  0  0  0  0  0  0  0
   -5.3664    4.7010  -17.3813 H   0  0  0  0  0  0  0  0  0  0  0  0
   -8.0988    3.7733  -14.8919 H   0  0  0  0  0  0  0  0  0  0  0  0
   -8.7126    2.9506  -18.6025 H   0  0  0  0  0  0  0  0  0  0  0  0
   -9.6187    2.3120  -17.2122 H   0  0  0  0  0  0  0  0  0  0  0  0
  -10.3671    2.4078  -18.8211 H   0  0  0  0  0  0  0  0  0  0  0  0
  -11.9329    5.2876  -16.9224 H   0  0  0  0  0  0  0  0  0  0  0  0
  -11.5139    3.7523  -16.1833 H   0  0  0  0  0  0  0  0  0  0  0  0
  -12.3086    3.7727  -17.7732 H   0  0  0  0  0  0  0  0  0  0  0  0
  -10.6136    6.1866  -18.8671 H   0  0  0  0  0  0  0  0  0  0  0  0
   -9.2706    5.2531  -19.5616 H   0  0  0  0  0  0  0  0  0  0  0  0
  -10.9570    4.7461  -19.8091 H   0  0  0  0  0  0  0  0  0  0  0  0
   -9.2395    2.0988   -7.2025 H   0  0  0  0  0  0  0  0  0  0  0  0
  1  2  1  0  0  0  0
  1  4  2  0  0  0  0
  2  6  2  0  0  0  0
  3  5  2  0  0  0  0
  3  6  1  0  0  0  0
  4  5  1  0  0  0  0
  4  9  1  0  0  0  0
  5 10  1  0  0  0  0
  6 24  1  0  0  0  0
  7 15  1  0  0  0  0
  7 20  1  0  0  0  0
  7 22  2  0  0  0  0
  8 21  1  0  0  0  0
  8 23  2  0  0  0  0
  8 25  1  0  0  0  0
  9 13  1  0  0  0  0
 10 20  1  0  0  0  0
 11 12  1  0  0  0  0
 11 14  1  0  0  0  0
 12 15  1  0  0  0  0
 13 20  1  0  0  0  0
 14 21  1  0  0  0  0
 15 21  1  0  0  0  0
 16 19  1  0  0  0  0
 17 19  1  0  0  0  0
 18 19  1  0  0  0  0
 19 25  1  0  0  0  0
  1 26  1  0  0  0  0
  2 27  1  0  0  0  0
  3 28  1  0  0  0  0
  9 29  1  0  0  0  0
  9 30  1  0  0  0  0
 10 31  1  0  0  0  0
 10 32  1  0  0  0  0
 11 33  1  0  0  0  0
 11 34  1  0  0  0  0
 12 35  1  0  0  0  0
 12 36  1  0  0  0  0
 13 37  1  0  0  0  0
 13 38  1  0  0  0  0
 14 39  1  0  0  0  0
 14 40  1  0  0  0  0
 15 41  1  0  0  0  0
 16 42  1  0  0  0  0
 16 43  1  0  0  0  0
 16 44  1  0  0  0  0
 17 45  1  0  0  0  0
 17 46  1  0  0  0  0
 17 47  1  0  0  0  0
 18 48  1  0  0  0  0
 18 49  1  0  0  0  0
 18 50  1  0  0  0  0
 24 51  1  0  0  0  0
M  END
> <id>
EN300-26665149

> <smiles>
CC(C)(C)OC(=O)N1CCCC1C(=O)N2CCC=3C=CC(O)=CC3C2

> <IUPAC Name>
tert-butyl 2-(7-hydroxy-1,2,3,4-tetrahydroisoquinoline-2-carbonyl)pyrrolidine-1-carboxylate

> <CAS>
2413867-58-8

> <URL>
https://www.enaminestore.com/catalog/EN300-26665149

> <ROCS_ShapeQuery>
_x0404_0B

> <ROCS_TanimotoCombo>
0.470 

> <ROCS_ShapeTanimoto>
0.387 

> <ROCS_ColorTanimoto>
0.083 

> <ROCS_RefTversky>
0.338 

> <ROCS_RefColorTversky>
0.089 

> <ROCS_RefTverskyCombo>
0.427 

> <ROCS_FitTversky>
1.589 

> <ROCS_FitColorTversky>
0.565 

> <ROCS_FitTverskyCombo>
2.154 

> <ROCS_ColorScore>
-6.431

> <ROCS_Overlap>
2259.538

> <ROCS_Rank>
25                  

$$$$
untitled-dbase-150426_4
  -OEChem-08222312023D

 43 47  0     1  0  0  0  0  0999 V2000
   -9.0305    2.1427   -8.9228 C   0  0  0  0  0  0  0  0  0  0  0  0
   -9.1202    1.9812   -7.5381 C   0  0  0  0  0  0  0  0  0  0  0  0
   -8.9151    5.8221   -9.2180 C   0  0  0  0  0  0  0  0  0  0  0  0
   -9.0753    4.3699   -7.2597 C   0  0  0  0  0  0  0  0  0  0  0  0
   -8.9847    4.5391   -8.6503 C   0  0  0  0  0  0  0  0  0  0  0  0
   -8.8265    5.9235  -10.5860 C   0  0  0  0  0  0  0  0  0  0  0  0
   -8.9612    3.4027   -9.5079 C   0  0  0  0  0  0  0  0  0  0  0  0
   -9.1427    3.0942   -6.7065 C   0  0  0  0  0  0  0  0  0  0  0  0
   -8.8105    4.7560  -11.3358 C   0  0  0  0  0  0  0  0  0  0  0  0
   -8.6647    4.3688  -13.8331 C   0  0  0  0  0  0  0  0  0  0  0  0
   -8.7100    5.1327  -12.7387 C   0  0  0  0  0  0  0  0  0  0  0  0
   -8.5613    5.0102  -15.1349 C   0  0  0  0  0  0  0  0  0  0  0  0
   -8.5345    6.3513  -15.2378 C   0  0  0  0  0  0  0  0  0  0  0  0
   -8.5890    7.2158  -14.0052 C   0  0  0  0  0  0  0  0  0  0  0  0
   -7.8331    4.8433  -17.5401 C   0  0  0  0  0  0  0  0  0  0  0  0
   -8.7375    7.1232  -11.4706 C   0  0  0  0  0  0  0  0  0  0  0  0
   -8.4672    7.0220  -16.5672 C   0  0  0  0  0  0  0  0  0  0  0  0
   -8.5436    4.1618  -16.3764 C   0  0  2  0  0  0  0  0  0  0  0  0
  -10.7968    4.9634  -17.1036 C   0  0  0  0  0  0  0  0  0  0  0  0
   -9.9570    3.7655  -16.8092 C   0  0  0  0  0  0  0  0  0  0  0  0
   -8.8746    3.5087  -10.8498 N   0  0  0  0  0  0  0  0  0  0  0  0
   -8.6695    6.5152  -12.8155 N   0  0  0  0  0  0  0  0  0  0  0  0
   -8.5657    8.4413  -14.0905 O   0  0  0  0  0  0  0  0  0  0  0  0
   -7.2360    4.2058  -18.4057 O   0  0  0  0  0  0  0  0  0  0  0  0
   -7.9260    6.1915  -17.6179 O   0  0  0  0  0  0  0  0  0  0  0  0
   -9.2298    2.9382   -5.3581 O   0  0  0  0  0  0  0  0  0  0  0  0
   -7.7819    2.9754  -16.1383 O   0  0  0  0  0  0  0  0  0  0  0  0
   -9.0140    1.2532   -9.5501 H   0  0  0  0  0  0  0  0  0  0  0  0
   -9.1725    0.9803   -7.1180 H   0  0  0  0  0  0  0  0  0  0  0  0
   -8.9293    6.7156   -8.6010 H   0  0  0  0  0  0  0  0  0  0  0  0
   -9.0933    5.2362   -6.6011 H   0  0  0  0  0  0  0  0  0  0  0  0
   -8.7108    3.2876  -13.7695 H   0  0  0  0  0  0  0  0  0  0  0  0
   -9.6256    7.7596  -11.4131 H   0  0  0  0  0  0  0  0  0  0  0  0
   -7.8290    7.7086  -11.3015 H   0  0  0  0  0  0  0  0  0  0  0  0
   -9.4597    7.3609  -16.8821 H   0  0  0  0  0  0  0  0  0  0  0  0
   -7.8136    7.8990  -16.5182 H   0  0  0  0  0  0  0  0  0  0  0  0
  -10.8600    5.5945  -16.2094 H   0  0  0  0  0  0  0  0  0  0  0  0
  -11.8139    4.6696  -17.3842 H   0  0  0  0  0  0  0  0  0  0  0  0
  -10.3585    5.5603  -17.9104 H   0  0  0  0  0  0  0  0  0  0  0  0
   -9.8911    3.1335  -17.6975 H   0  0  0  0  0  0  0  0  0  0  0  0
  -10.4191    3.1774  -16.0135 H   0  0  0  0  0  0  0  0  0  0  0  0
   -9.2683    1.9955   -5.1295 H   0  0  0  0  0  0  0  0  0  0  0  0
   -7.8028    2.4690  -16.9635 H   0  0  0  0  0  0  0  0  0  0  0  0
  1  2  1  0  0  0  0
  1  7  2  0  0  0  0
  2  8  2  0  0  0  0
  3  5  1  0  0  0  0
  3  6  2  0  0  0  0
  4  5  2  0  0  0  0
  4  8  1  0  0  0  0
  5  7  1  0  0  0  0
  6  9  1  0  0  0  0
  6 16  1  0  0  0  0
  7 21  1  0  0  0  0
  8 26  1  0  0  0  0
  9 11  1  0  0  0  0
  9 21  2  0  0  0  0
 10 11  2  0  0  0  0
 10 12  1  0  0  0  0
 11 22  1  0  0  0  0
 12 13  2  0  0  0  0
 12 18  1  0  0  0  0
 13 14  1  0  0  0  0
 13 17  1  0  0  0  0
 14 22  1  0  0  0  0
 14 23  2  0  0  0  0
 15 18  1  0  0  0  0
 15 24  2  0  0  0  0
 15 25  1  0  0  0  0
 16 22  1  0  0  0  0
 17 25  1  0  0  0  0
 18 20  1  0  0  0  0
 18 27  1  1  0  0  0
 19 20  1  0  0  0  0
  1 28  1  0  0  0  0
  2 29  1  0  0  0  0
  3 30  1  0  0  0  0
  4 31  1  0  0  0  0
 10 32  1  0  0  0  0
 16 33  1  0  0  0  0
 16 34  1  0  0  0  0
 17 35  1  0  0  0  0
 17 36  1  0  0  0  0
 19 37  1  0  0  0  0
 19 38  1  0  0  0  0
 19 39  1  0  0  0  0
 20 40  1  0  0  0  0
 20 41  1  0  0  0  0
 26 42  1  0  0  0  0
 27 43  1  0  0  0  0
M  END
> <id>
EN300-19810684

> <smiles>
CC[C@@]1(O)C(=O)OCC2=C1C=C3C=4N=C5C=CC(O)=CC5=CC4CN3C2=O

> <MDLNUMBER>
MFCD02093100

> <IUPAC Name>
(19S)-19-ethyl-7,19-dihydroxy-17-oxa-3,13-diazapentacyclo[11.8.0.0^{2,11}.0^{4,9}.0^{15,20}]henicosa-1(21),2(11),3,5,7,9,15(20)-heptaene-14,18-dione

> <CAS>
19685-09-7

> <Purity>
95

> <URL>
https://www.enaminestore.com/catalog/EN300-19810684

> <MP>
265-267

> <ROCS_ShapeQuery>
_x0404_0B

> <ROCS_TanimotoCombo>
0.470 

> <ROCS_ShapeTanimoto>
0.407 

> <ROCS_ColorTanimoto>
0.062 

> <ROCS_RefTversky>
0.358 

> <ROCS_RefColorTversky>
0.072 

> <ROCS_RefTverskyCombo>
0.429 

> <ROCS_FitTversky>
1.517 

> <ROCS_FitColorTversky>
0.322 

> <ROCS_FitTverskyCombo>
1.839 

> <ROCS_ColorScore>
-5.205

> <ROCS_Overlap>
2392.662

> <ROCS_Rank>
26                  

$$$$
untitled-dbase-103031_1451
  -OEChem-08222312023D

 61 64  0     1  0  0  0  0  0999 V2000
   -8.9584    3.9613   -9.0651 B   0  0  0  0  0  0  0  0  0  0  0  0
   -8.7021    3.8907  -11.6757 C   0  0  0  0  0  0  0  0  0  0  0  0
   -8.8648    4.6719  -10.5949 C   0  0  0  0  0  0  0  0  0  0  0  0
   -9.5056    6.3420  -14.3579 C   0  0  0  0  0  0  0  0  0  0  0  0
   -8.6311    4.4320  -13.0742 C   0  0  0  0  0  0  0  0  0  0  0  0
   -8.9508    6.1749  -10.6793 C   0  0  0  0  0  0  0  0  0  0  0  0
   -9.1379    5.0832  -17.9155 C   0  0  0  0  0  0  0  0  0  0  0  0
   -6.9106    4.9493  -19.1555 C   0  0  0  0  0  0  0  0  0  0  0  0
   -8.5241    6.6876  -12.0559 C   0  0  0  0  0  0  0  0  0  0  0  0
   -9.7995    5.7774  -16.7320 C   0  0  0  0  0  0  0  0  0  0  0  0
   -5.5304    5.4647  -18.7967 C   0  0  0  0  0  0  0  0  0  0  0  0
   -7.5472    5.4127  -15.6941 C   0  0  0  0  0  0  0  0  0  0  0  0
   -7.8022    5.7499  -18.2224 C   0  0  2  0  0  0  0  0  0  0  0  0
   -6.9372    6.0099  -16.9742 C   0  0  2  0  0  0  0  0  0  0  0  0
   -9.1872    2.3559   -7.4498 C   0  0  0  0  0  0  0  0  0  0  0  0
   -8.9686    3.7569   -6.7854 C   0  0  0  0  0  0  0  0  0  0  0  0
  -10.6378    1.8268   -7.3880 C   0  0  0  0  0  0  0  0  0  0  0  0
   -8.2598    1.2483   -6.9299 C   0  0  0  0  0  0  0  0  0  0  0  0
   -7.5580    3.9838   -6.1966 C   0  0  0  0  0  0  0  0  0  0  0  0
   -9.9945    4.1195   -5.7023 C   0  0  0  0  0  0  0  0  0  0  0  0
   -5.0607    4.4044  -16.6778 C   0  0  0  0  0  0  0  0  0  0  0  0
   -9.0480    5.8354  -13.1315 N   0  0  0  0  0  0  0  0  0  0  0  0
   -8.9617    5.7897  -15.5292 N   0  0  0  0  0  0  0  0  0  0  0  0
   -5.5521    5.6136  -17.3321 N   0  0  1  0  0  0  0  0  0  0  0  0
  -10.3449    7.2511  -14.4046 O   0  0  0  0  0  0  0  0  0  0  0  0
   -8.8744    2.5858   -8.8621 O   0  0  0  0  0  0  0  0  0  0  0  0
   -9.1265    4.6990   -7.8956 O   0  0  0  0  0  0  0  0  0  0  0  0
   -8.6293    2.8107  -11.5791 H   0  0  0  0  0  0  0  0  0  0  0  0
   -7.6007    4.3602  -13.4448 H   0  0  0  0  0  0  0  0  0  0  0  0
   -9.2855    3.8179  -13.7023 H   0  0  0  0  0  0  0  0  0  0  0  0
   -9.9835    6.4910  -10.4732 H   0  0  0  0  0  0  0  0  0  0  0  0
   -8.3088    6.6458   -9.9219 H   0  0  0  0  0  0  0  0  0  0  0  0
   -9.0048    4.0184  -17.6871 H   0  0  0  0  0  0  0  0  0  0  0  0
   -9.7906    5.1350  -18.7946 H   0  0  0  0  0  0  0  0  0  0  0  0
   -7.1548    5.1171  -20.2078 H   0  0  0  0  0  0  0  0  0  0  0  0
   -6.9793    3.8743  -18.9524 H   0  0  0  0  0  0  0  0  0  0  0  0
   -8.8507    7.7262  -12.1921 H   0  0  0  0  0  0  0  0  0  0  0  0
   -7.4287    6.6816  -12.1468 H   0  0  0  0  0  0  0  0  0  0  0  0
  -10.0290    6.8210  -16.9844 H   0  0  0  0  0  0  0  0  0  0  0  0
  -10.7505    5.2913  -16.4820 H   0  0  0  0  0  0  0  0  0  0  0  0
   -4.7392    4.7645  -19.1208 H   0  0  0  0  0  0  0  0  0  0  0  0
   -5.3420    6.4338  -19.2995 H   0  0  0  0  0  0  0  0  0  0  0  0
   -7.5109    4.3189  -15.7334 H   0  0  0  0  0  0  0  0  0  0  0  0
   -6.9653    5.7491  -14.8335 H   0  0  0  0  0  0  0  0  0  0  0  0
   -8.0000    6.7232  -18.6970 H   0  0  0  0  0  0  0  0  0  0  0  0
   -6.9676    7.1592  -16.8453 H   0  0  0  0  0  0  0  0  0  0  0  0
  -10.6793    0.8590   -7.8719 H   0  0  0  0  0  0  0  0  0  0  0  0
  -11.2882    2.5251   -7.8995 H   0  0  0  0  0  0  0  0  0  0  0  0
  -10.9343    1.7355   -6.3506 H   0  0  0  0  0  0  0  0  0  0  0  0
   -8.4832    0.3187   -7.4453 H   0  0  0  0  0  0  0  0  0  0  0  0
   -8.4156    1.1182   -5.8630 H   0  0  0  0  0  0  0  0  0  0  0  0
   -7.2262    1.5264   -7.1147 H   0  0  0  0  0  0  0  0  0  0  0  0
   -7.5132    4.9757   -5.7646 H   0  0  0  0  0  0  0  0  0  0  0  0
   -6.8274    3.8920   -6.9904 H   0  0  0  0  0  0  0  0  0  0  0  0
   -7.3721    3.2384   -5.4334 H   0  0  0  0  0  0  0  0  0  0  0  0
   -9.7642    5.1021   -5.3012 H   0  0  0  0  0  0  0  0  0  0  0  0
   -9.9533    3.3833   -4.9049 H   0  0  0  0  0  0  0  0  0  0  0  0
  -10.9901    4.1290   -6.1366 H   0  0  0  0  0  0  0  0  0  0  0  0
   -5.0868    4.5408  -15.5866 H   0  0  0  0  0  0  0  0  0  0  0  0
   -5.6982    3.5522  -16.9560 H   0  0  0  0  0  0  0  0  0  0  0  0
   -4.0267    4.2087  -16.9981 H   0  0  0  0  0  0  0  0  0  0  0  0
  1  3  1  0  0  0  0
  1 26  1  0  0  0  0
  1 27  1  0  0  0  0
  2  3  2  0  0  0  0
  2  5  1  0  0  0  0
  3  6  1  0  0  0  0
  4 22  1  0  0  0  0
  4 23  1  0  0  0  0
  4 25  2  0  0  0  0
  5 22  1  0  0  0  0
  6  9  1  0  0  0  0
  7 10  1  0  0  0  0
  7 13  1  0  0  0  0
  8 11  1  0  0  0  0
  8 13  1  0  0  0  0
  9 22  1  0  0  0  0
 10 23  1  0  0  0  0
 11 24  1  0  0  0  0
 12 14  1  0  0  0  0
 12 23  1  0  0  0  0
 13 14  1  0  0  0  0
 14 24  1  0  0  0  0
 15 16  1  0  0  0  0
 15 17  1  0  0  0  0
 15 18  1  0  0  0  0
 15 26  1  0  0  0  0
 16 19  1  0  0  0  0
 16 20  1  0  0  0  0
 16 27  1  0  0  0  0
 21 24  1  0  0  0  0
  2 28  1  0  0  0  0
  5 29  1  0  0  0  0
  5 30  1  0  0  0  0
  6 31  1  0  0  0  0
  6 32  1  0  0  0  0
  7 33  1  0  0  0  0
  7 34  1  0  0  0  0
  8 35  1  0  0  0  0
  8 36  1  0  0  0  0
  9 37  1  0  0  0  0
  9 38  1  0  0  0  0
 10 39  1  0  0  0  0
 10 40  1  0  0  0  0
 11 41  1  0  0  0  0
 11 42  1  0  0  0  0
 12 43  1  0  0  0  0
 12 44  1  0  0  0  0
 13 45  1  0  0  0  0
 14 46  1  0  0  0  0
 17 47  1  0  0  0  0
 17 48  1  0  0  0  0
 17 49  1  0  0  0  0
 18 50  1  0  0  0  0
 18 51  1  0  0  0  0
 18 52  1  0  0  0  0
 19 53  1  0  0  0  0
 19 54  1  0  0  0  0
 19 55  1  0  0  0  0
 20 56  1  0  0  0  0
 20 57  1  0  0  0  0
 20 58  1  0  0  0  0
 21 59  1  0  0  0  0
 21 60  1  0  0  0  0
 21 61  1  0  0  0  0
M  END
> <id>
EN300-6735990

> <smiles>
CN1CCC2CCN(CC21)C(=O)N3CCC(=CC3)B4OC(C)(C)C(C)(C)O4

> <IUPAC Name>
1-{1-methyl-octahydro-1H-pyrrolo[2,3-c]pyridine-6-carbonyl}-4-(4,4,5,5-tetramethyl-1,3,2-dioxaborolan-2-yl)-1,2,3,6-tetrahydropyridine

> <URL>
https://www.enaminestore.com/catalog/EN300-6735990

> <ROCS_ShapeQuery>
_x0404_0B

> <ROCS_TanimotoCombo>
0.470 

> <ROCS_ShapeTanimoto>
0.401 

> <ROCS_ColorTanimoto>
0.068 

> <ROCS_RefTversky>
0.350 

> <ROCS_RefColorTversky>
0.074 

> <ROCS_RefTverskyCombo>
0.424 

> <ROCS_FitTversky>
1.574 

> <ROCS_FitColorTversky>
0.469 

> <ROCS_FitTverskyCombo>
2.043 

> <ROCS_ColorScore>
-5.344

> <ROCS_Overlap>
2340.084

> <ROCS_Rank>
27                  

$$$$
untitled-dbase-124936_0
  -OEChem-08222312023D

 38 41  0     0  0  0  0  0  0999 V2000
   -7.7556    2.9240  -13.4667 C   0  0  0  0  0  0  0  0  0  0  0  0
   -8.7652    7.7345  -13.0022 C   0  0  0  0  0  0  0  0  0  0  0  0
   -9.2012    2.8751   -6.9730 C   0  0  0  0  0  0  0  0  0  0  0  0
   -9.6065    4.2048   -6.9280 C   0  0  0  0  0  0  0  0  0  0  0  0
   -9.1292    5.2913  -15.5931 C   0  0  0  0  0  0  0  0  0  0  0  0
   -6.7981    5.7774  -15.1847 C   0  0  0  0  0  0  0  0  0  0  0  0
   -8.9211    5.4443  -16.9638 C   0  0  0  0  0  0  0  0  0  0  0  0
   -6.5899    5.9304  -16.5554 C   0  0  0  0  0  0  0  0  0  0  0  0
   -8.7123    2.3247   -8.1587 C   0  0  0  0  0  0  0  0  0  0  0  0
   -9.5208    5.0284   -8.0574 C   0  0  0  0  0  0  0  0  0  0  0  0
   -8.0678    5.4579  -14.7035 C   0  0  0  0  0  0  0  0  0  0  0  0
   -7.6514    5.7638  -17.4449 C   0  0  0  0  0  0  0  0  0  0  0  0
   -8.6260    3.1384   -9.3031 C   0  0  0  0  0  0  0  0  0  0  0  0
   -9.0023    4.4811   -9.2427 C   0  0  0  0  0  0  0  0  0  0  0  0
   -8.3508    3.8849  -11.2896 C   0  0  0  0  0  0  0  0  0  0  0  0
   -8.1298    4.0655  -12.6901 C   0  0  0  0  0  0  0  0  0  0  0  0
   -8.6610    6.4445  -12.3934 C   0  0  0  0  0  0  0  0  0  0  0  0
   -8.2895    5.2949  -13.2425 C   0  0  0  0  0  0  0  0  0  0  0  0
   -8.8754    6.2878  -11.0624 C   0  0  0  0  0  0  0  0  0  0  0  0
   -7.4290    5.9250  -18.9108 C   0  0  0  0  0  0  0  0  0  0  0  0
   -7.4521    1.9981  -14.0963 N   0  0  0  0  0  0  0  0  0  0  0  0
   -8.8495    8.7809  -13.4958 N   0  0  0  0  0  0  0  0  0  0  0  0
   -8.2244    2.7959  -10.5613 N   0  0  0  0  0  0  0  0  0  0  0  0
   -8.7563    4.9825  -10.5232 N   0  0  0  0  0  0  0  0  0  0  0  0
   -9.1664    7.3298  -10.2177 N   0  0  0  0  0  0  0  0  0  0  0  0
   -9.2780    2.2559   -6.0836 H   0  0  0  0  0  0  0  0  0  0  0  0
  -10.0012    4.6131   -6.0010 H   0  0  0  0  0  0  0  0  0  0  0  0
  -10.1247    5.0424  -15.2330 H   0  0  0  0  0  0  0  0  0  0  0  0
   -5.9607    5.9100  -14.5038 H   0  0  0  0  0  0  0  0  0  0  0  0
   -9.7537    5.3122  -17.6496 H   0  0  0  0  0  0  0  0  0  0  0  0
   -5.5975    6.1795  -16.9219 H   0  0  0  0  0  0  0  0  0  0  0  0
   -8.4158    1.2808   -8.1961 H   0  0  0  0  0  0  0  0  0  0  0  0
   -9.8700    6.0507   -7.9861 H   0  0  0  0  0  0  0  0  0  0  0  0
   -7.5951    6.9672  -19.2100 H   0  0  0  0  0  0  0  0  0  0  0  0
   -6.4068    5.6409  -19.1924 H   0  0  0  0  0  0  0  0  0  0  0  0
   -8.1074    5.2845  -19.4895 H   0  0  0  0  0  0  0  0  0  0  0  0
   -9.3092    7.1281   -9.2562 H   0  0  0  0  0  0  0  0  0  0  0  0
   -9.2224    8.2435  -10.6019 H   0  0  0  0  0  0  0  0  0  0  0  0
  1 16  1  0  0  0  0
  1 21  3  0  0  0  0
  2 17  1  0  0  0  0
  2 22  3  0  0  0  0
  3  4  2  0  0  0  0
  3  9  1  0  0  0  0
  4 10  1  0  0  0  0
  5  7  1  0  0  0  0
  5 11  2  0  0  0  0
  6  8  2  0  0  0  0
  6 11  1  0  0  0  0
  7 12  2  0  0  0  0
  8 12  1  0  0  0  0
  9 13  2  0  0  0  0
 10 14  2  0  0  0  0
 11 18  1  0  0  0  0
 12 20  1  0  0  0  0
 13 14  1  0  0  0  0
 13 23  1  0  0  0  0
 14 24  1  0  0  0  0
 15 16  1  0  0  0  0
 15 23  2  0  0  0  0
 15 24  1  0  0  0  0
 16 18  2  0  0  0  0
 17 18  1  0  0  0  0
 17 19  2  0  0  0  0
 19 24  1  0  0  0  0
 19 25  1  0  0  0  0
  3 26  1  0  0  0  0
  4 27  1  0  0  0  0
  5 28  1  0  0  0  0
  6 29  1  0  0  0  0
  7 30  1  0  0  0  0
  8 31  1  0  0  0  0
  9 32  1  0  0  0  0
 10 33  1  0  0  0  0
 20 34  1  0  0  0  0
 20 35  1  0  0  0  0
 20 36  1  0  0  0  0
 25 37  1  0  0  0  0
 25 38  1  0  0  0  0
M  END
> <id>
EN300-02854

> <smiles>
CC=1C=CC(=CC1)C=2C(C#N)=C(N)N3C=4C=CC=CC4N=C3C2C#N

> <MDLNUMBER>
MFCD01572665

> <IUPAC Name>
13-amino-11-(4-methylphenyl)-1,8-diazatricyclo[7.4.0.0,2,7]trideca-2(7),3,5,8,10,12-hexaene-10,12-dicarbonitrile

> <CAS>
150651-39-1

> <Purity>
95

> <URL>
https://www.enaminestore.com/catalog/EN300-02854

> <MP>
325-330

> <ROCS_ShapeQuery>
_x0404_0B

> <ROCS_TanimotoCombo>
0.470 

> <ROCS_ShapeTanimoto>
0.380 

> <ROCS_ColorTanimoto>
0.089 

> <ROCS_RefTversky>
0.336 

> <ROCS_RefColorTversky>
0.097 

> <ROCS_RefTverskyCombo>
0.433 

> <ROCS_FitTversky>
1.532 

> <ROCS_FitColorTversky>
0.526 

> <ROCS_FitTverskyCombo>
2.058 

> <ROCS_ColorScore>
-7.005

> <ROCS_Overlap>
2246.128

> <ROCS_Rank>
28                  

$$$$
untitled-dbase-103101_558
  -OEChem-08222312023D

 57 60  0     1  0  0  0  0  0999 V2000
   -8.9721    3.9625   -9.0715 B   0  0  0  0  0  0  0  0  0  0  0  0
   -8.3332    4.0327  -11.6151 C   0  0  0  0  0  0  0  0  0  0  0  0
   -8.8249    4.7226  -10.5728 C   0  0  0  0  0  0  0  0  0  0  0  0
   -9.0113    4.6462  -18.8499 C   0  0  0  0  0  0  0  0  0  0  0  0
   -9.3678    6.3811  -14.3492 C   0  0  0  0  0  0  0  0  0  0  0  0
   -8.1833    4.6287  -12.9835 C   0  0  0  0  0  0  0  0  0  0  0  0
   -9.2459    6.1670  -10.6753 C   0  0  0  0  0  0  0  0  0  0  0  0
   -6.3901    6.3062  -16.6171 C   0  0  0  0  0  0  0  0  0  0  0  0
   -6.9306    5.5695  -17.8349 C   0  0  0  0  0  0  0  0  0  0  0  0
   -8.7904    6.8135  -11.9867 C   0  0  0  0  0  0  0  0  0  0  0  0
   -7.1142    5.8603  -15.3556 C   0  0  0  0  0  0  0  0  0  0  0  0
   -9.4682    4.0252  -16.6184 C   0  0  0  0  0  0  0  0  0  0  0  0
   -8.4429    5.7428  -17.9678 C   0  0  2  0  0  0  0  0  0  0  0  0
   -9.2171    5.5279  -16.6546 C   0  0  2  0  0  0  0  0  0  0  0  0
   -9.4566    2.3604   -7.5103 C   0  0  0  0  0  0  0  0  0  0  0  0
   -8.8631    3.6288   -6.8097 C   0  0  0  0  0  0  0  0  0  0  0  0
  -10.9828    2.1820   -7.3465 C   0  0  0  0  0  0  0  0  0  0  0  0
   -8.7835    1.0375   -7.1181 C   0  0  0  0  0  0  0  0  0  0  0  0
   -7.3996    3.4839   -6.3350 C   0  0  0  0  0  0  0  0  0  0  0  0
   -9.6910    4.1549   -5.6287 C   0  0  0  0  0  0  0  0  0  0  0  0
   -9.5762    3.6872  -18.0132 N   0  0  0  0  0  0  0  0  0  0  0  0
   -8.9402    5.8848  -13.1068 N   0  0  0  0  0  0  0  0  0  0  0  0
   -8.5656    6.0656  -15.4623 N   0  0  0  0  0  0  0  0  0  0  0  0
   -8.9328    4.6070  -20.0685 O   0  0  0  0  0  0  0  0  0  0  0  0
  -10.3960    7.0602  -14.4575 O   0  0  0  0  0  0  0  0  0  0  0  0
   -9.2028    2.5958   -8.9335 O   0  0  0  0  0  0  0  0  0  0  0  0
   -8.8736    4.6471   -7.8624 O   0  0  0  0  0  0  0  0  0  0  0  0
   -8.0090    3.0028  -11.5031 H   0  0  0  0  0  0  0  0  0  0  0  0
   -7.1177    4.8104  -13.1616 H   0  0  0  0  0  0  0  0  0  0  0  0
   -8.5597    3.9243  -13.7361 H   0  0  0  0  0  0  0  0  0  0  0  0
  -10.3411    6.2598  -10.6084 H   0  0  0  0  0  0  0  0  0  0  0  0
   -8.8242    6.7279   -9.8258 H   0  0  0  0  0  0  0  0  0  0  0  0
   -5.3173    6.1056  -16.5160 H   0  0  0  0  0  0  0  0  0  0  0  0
   -6.5021    7.3885  -16.7528 H   0  0  0  0  0  0  0  0  0  0  0  0
   -6.4368    5.9376  -18.7421 H   0  0  0  0  0  0  0  0  0  0  0  0
   -6.6673    4.5063  -17.7593 H   0  0  0  0  0  0  0  0  0  0  0  0
   -9.4022    7.6973  -12.2124 H   0  0  0  0  0  0  0  0  0  0  0  0
   -7.7513    7.1529  -11.9001 H   0  0  0  0  0  0  0  0  0  0  0  0
   -6.9576    4.7864  -15.1943 H   0  0  0  0  0  0  0  0  0  0  0  0
   -6.6960    6.3448  -14.4723 H   0  0  0  0  0  0  0  0  0  0  0  0
   -8.6351    3.4515  -16.2021 H   0  0  0  0  0  0  0  0  0  0  0  0
  -10.3947    3.7586  -16.1033 H   0  0  0  0  0  0  0  0  0  0  0  0
   -8.6841    6.7246  -18.3889 H   0  0  0  0  0  0  0  0  0  0  0  0
  -10.1936    6.0252  -16.7507 H   0  0  0  0  0  0  0  0  0  0  0  0
  -11.2887    1.2818   -7.8647 H   0  0  0  0  0  0  0  0  0  0  0  0
  -11.4844    3.0426   -7.7710 H   0  0  0  0  0  0  0  0  0  0  0  0
  -11.2155    2.1001   -6.2921 H   0  0  0  0  0  0  0  0  0  0  0  0
   -9.2587    0.2187   -7.6504 H   0  0  0  0  0  0  0  0  0  0  0  0
   -8.8869    0.8831   -6.0480 H   0  0  0  0  0  0  0  0  0  0  0  0
   -7.7299    1.0771   -7.3790 H   0  0  0  0  0  0  0  0  0  0  0  0
   -7.0888    4.4100   -5.8679 H   0  0  0  0  0  0  0  0  0  0  0  0
   -6.7721    3.2721   -7.1916 H   0  0  0  0  0  0  0  0  0  0  0  0
   -7.3407    2.6710   -5.6221 H   0  0  0  0  0  0  0  0  0  0  0  0
   -9.2048    5.0305   -5.2085 H   0  0  0  0  0  0  0  0  0  0  0  0
   -9.7675    3.3827   -4.8689 H   0  0  0  0  0  0  0  0  0  0  0  0
  -10.6849    4.4229   -5.9753 H   0  0  0  0  0  0  0  0  0  0  0  0
  -10.0180    2.8384  -18.3515 H   0  0  0  0  0  0  0  0  0  0  0  0
  1  3  1  0  0  0  0
  1 26  1  0  0  0  0
  1 27  1  0  0  0  0
  2  3  2  0  0  0  0
  2  6  1  0  0  0  0
  3  7  1  0  0  0  0
  4 13  1  0  0  0  0
  4 21  1  0  0  0  0
  4 24  2  0  0  0  0
  5 22  1  0  0  0  0
  5 23  1  0  0  0  0
  5 25  2  0  0  0  0
  6 22  1  0  0  0  0
  7 10  1  0  0  0  0
  8  9  1  0  0  0  0
  8 11  1  0  0  0  0
  9 13  1  1  0  0  0
 10 22  1  0  0  0  0
 11 23  1  0  0  0  0
 12 14  1  1  0  0  0
 12 21  1  0  0  0  0
 13 14  1  0  0  0  0
 14 23  1  0  0  0  0
 15 16  1  0  0  0  0
 15 17  1  0  0  0  0
 15 18  1  0  0  0  0
 15 26  1  0  0  0  0
 16 19  1  0  0  0  0
 16 20  1  0  0  0  0
 16 27  1  0  0  0  0
  2 28  1  0  0  0  0
  6 29  1  0  0  0  0
  6 30  1  0  0  0  0
  7 31  1  0  0  0  0
  7 32  1  0  0  0  0
  8 33  1  0  0  0  0
  8 34  1  0  0  0  0
  9 35  1  0  0  0  0
  9 36  1  0  0  0  0
 10 37  1  0  0  0  0
 10 38  1  0  0  0  0
 11 39  1  0  0  0  0
 11 40  1  0  0  0  0
 12 41  1  0  0  0  0
 12 42  1  0  0  0  0
 13 43  1  0  0  0  0
 14 44  1  0  0  0  0
 17 45  1  0  0  0  0
 17 46  1  0  0  0  0
 17 47  1  0  0  0  0
 18 48  1  0  0  0  0
 18 49  1  0  0  0  0
 18 50  1  0  0  0  0
 19 51  1  0  0  0  0
 19 52  1  0  0  0  0
 19 53  1  0  0  0  0
 20 54  1  0  0  0  0
 20 55  1  0  0  0  0
 20 56  1  0  0  0  0
 21 57  1  0  0  0  0
M  END
> <id>
EN300-6735378

> <smiles>
CC1(C)OB(OC1(C)C)C2=CCN(CC2)C(=O)N3CCC[C@@H]4[C@H]3CNC4=O

> <IUPAC Name>
(4aR,7aS)-1-[4-(4,4,5,5-tetramethyl-1,3,2-dioxaborolan-2-yl)-1,2,3,6-tetrahydropyridine-1-carbonyl]-octahydro-1H-pyrrolo[3,4-b]pyridin-5-one

> <URL>
https://www.enaminestore.com/catalog/EN300-6735378

> <ROCS_ShapeQuery>
_x0404_0B

> <ROCS_TanimotoCombo>
0.469 

> <ROCS_ShapeTanimoto>
0.404 

> <ROCS_ColorTanimoto>
0.065 

> <ROCS_RefTversky>
0.352 

> <ROCS_RefColorTversky>
0.071 

> <ROCS_RefTverskyCombo>
0.423 

> <ROCS_FitTversky>
1.573 

> <ROCS_FitColorTversky>
0.417 

> <ROCS_FitTverskyCombo>
1.990 

> <ROCS_ColorScore>
-5.158

> <ROCS_Overlap>
2352.721

> <ROCS_Rank>
29                  

$$$$
untitled-dbase-83844_23
  -OEChem-08222312023D

 38 41  0     1  0  0  0  0  0999 V2000
   -8.8816    1.8457   -7.8863 C   0  0  0  0  0  0  0  0  0  0  0  0
   -9.1328    2.8703   -6.9863 C   0  0  0  0  0  0  0  0  0  0  0  0
   -8.7079    2.1465   -9.2358 C   0  0  0  0  0  0  0  0  0  0  0  0
   -9.2065    4.1838   -7.4462 C   0  0  0  0  0  0  0  0  0  0  0  0
   -7.0572    4.9301  -15.7922 C   0  0  0  0  0  0  0  0  0  0  0  0
   -9.3896    4.4992  -15.9685 C   0  0  0  0  0  0  0  0  0  0  0  0
   -8.2500    4.5572  -15.1826 C   0  0  0  0  0  0  0  0  0  0  0  0
   -8.7814    3.4584   -9.6996 C   0  0  0  0  0  0  0  0  0  0  0  0
   -9.0326    4.4891   -8.7946 C   0  0  0  0  0  0  0  0  0  0  0  0
   -7.0408    5.2295  -17.1499 C   0  0  0  0  0  0  0  0  0  0  0  0
   -8.6944    5.0130  -11.4364 C   0  0  0  0  0  0  0  0  0  0  0  0
   -8.9238    6.0511  -10.5366 C   0  0  0  0  0  0  0  0  0  0  0  0
   -8.2345    5.1413  -17.8478 C   0  0  0  0  0  0  0  0  0  0  0  0
   -8.3004    4.2349  -13.7468 C   0  0  0  0  0  0  0  0  0  0  0  0
   -8.7829    6.6704  -13.2780 C   0  0  0  0  0  0  0  0  0  0  0  0
   -8.3602    7.6887  -12.2360 C   0  0  0  0  0  0  0  0  0  0  0  0
   -9.1340    8.4317   -9.9760 C   0  0  0  0  0  0  0  0  0  0  0  0
   -9.4127    4.7827  -17.2902 N   0  0  0  0  0  0  0  0  0  0  0  0
   -8.6178    3.7319  -11.0009 N   0  0  0  0  0  0  0  0  0  0  0  0
   -9.1024    5.7582   -9.2221 N   0  0  0  0  0  0  0  0  0  0  0  0
   -8.5634    5.2833  -12.8452 N   0  0  0  0  0  0  0  0  0  0  0  0
   -8.9772    7.3765  -10.9620 N   0  0  2  0  0  0  0  0  0  0  0  0
   -8.1062    3.0525  -13.4677 O   0  0  0  0  0  0  0  0  0  0  0  0
   -5.5543    5.6872  -17.8879 Cl  0  0  0  0  0  0  0  0  0  0  0  0
   -8.3656    5.4814  -19.5314 Cl  0  0  0  0  0  0  0  0  0  0  0  0
   -8.8197    0.8177   -7.5431 H   0  0  0  0  0  0  0  0  0  0  0  0
   -9.2715    2.6518   -5.9320 H   0  0  0  0  0  0  0  0  0  0  0  0
   -8.5107    1.3350   -9.9334 H   0  0  0  0  0  0  0  0  0  0  0  0
   -9.4051    4.9797   -6.7313 H   0  0  0  0  0  0  0  0  0  0  0  0
   -6.1440    4.9850  -15.2041 H   0  0  0  0  0  0  0  0  0  0  0  0
  -10.3504    4.2145  -15.5501 H   0  0  0  0  0  0  0  0  0  0  0  0
   -9.8407    6.8290  -13.5120 H   0  0  0  0  0  0  0  0  0  0  0  0
   -8.2210    6.8106  -14.2103 H   0  0  0  0  0  0  0  0  0  0  0  0
   -7.2675    7.6754  -12.1481 H   0  0  0  0  0  0  0  0  0  0  0  0
   -8.6461    8.7002  -12.5514 H   0  0  0  0  0  0  0  0  0  0  0  0
   -9.1566    9.4076  -10.4831 H   0  0  0  0  0  0  0  0  0  0  0  0
  -10.0749    8.2826   -9.4260 H   0  0  0  0  0  0  0  0  0  0  0  0
   -8.2893    8.4040   -9.2719 H   0  0  0  0  0  0  0  0  0  0  0  0
  1  2  2  0  0  0  0
  1  3  1  0  0  0  0
  2  4  1  0  0  0  0
  3  8  2  0  0  0  0
  4  9  2  0  0  0  0
  5  7  1  0  0  0  0
  5 10  2  0  0  0  0
  6  7  2  0  0  0  0
  6 18  1  0  0  0  0
  7 14  1  0  0  0  0
  8  9  1  0  0  0  0
  8 19  1  0  0  0  0
  9 20  1  0  0  0  0
 10 13  1  0  0  0  0
 10 24  1  0  0  0  0
 11 12  1  0  0  0  0
 11 19  2  0  0  0  0
 11 21  1  0  0  0  0
 12 20  2  0  0  0  0
 12 22  1  0  0  0  0
 13 18  2  0  0  0  0
 13 25  1  0  0  0  0
 14 21  1  0  0  0  0
 14 23  2  0  0  0  0
 15 16  1  0  0  0  0
 15 21  1  0  0  0  0
 16 22  1  0  0  0  0
 17 22  1  0  0  0  0
  1 26  1  0  0  0  0
  2 27  1  0  0  0  0
  3 28  1  0  0  0  0
  4 29  1  0  0  0  0
  5 30  1  0  0  0  0
  6 31  1  0  0  0  0
 15 32  1  0  0  0  0
 15 33  1  0  0  0  0
 16 34  1  0  0  0  0
 16 35  1  0  0  0  0
 17 36  1  0  0  0  0
 17 37  1  0  0  0  0
 17 38  1  0  0  0  0
M  END
> <id>
EN300-18488813

> <smiles>
CN1CCN(C(=O)C=2C=NC(Cl)=C(Cl)C2)C=3N=C4C=CC=CC4=NC13

> <MDLNUMBER>
MFCD09530718

> <IUPAC Name>
2,3-dichloro-5-{4-methyl-1H,2H,3H,4H-pyrazino[2,3-b]quinoxaline-1-carbonyl}pyridine

> <CAS>
938749-26-9

> <URL>
https://www.enaminestore.com/catalog/EN300-18488813

> <ROCS_ShapeQuery>
_x0404_0B

> <ROCS_TanimotoCombo>
0.468 

> <ROCS_ShapeTanimoto>
0.407 

> <ROCS_ColorTanimoto>
0.061 

> <ROCS_RefTversky>
0.352 

> <ROCS_RefColorTversky>
0.067 

> <ROCS_RefTverskyCombo>
0.419 

> <ROCS_FitTversky>
1.617 

> <ROCS_FitColorTversky>
0.423 

> <ROCS_FitTverskyCombo>
2.040 

> <ROCS_ColorScore>
-4.824

> <ROCS_Overlap>
2354.550

> <ROCS_Rank>
30                  

$$$$
untitled-dbase-51583_0
  -OEChem-08222312023D

 34 37  0     0  0  0  0  0  0999 V2000
   -9.0236    5.7003   -8.9005 C   0  0  0  0  0  0  0  0  0  0  0  0
   -7.1115    6.4186  -15.6801 C   0  0  0  0  0  0  0  0  0  0  0  0
   -6.9838    5.8272  -16.9391 C   0  0  0  0  0  0  0  0  0  0  0  0
   -9.1707    4.4417   -8.3123 C   0  0  0  0  0  0  0  0  0  0  0  0
   -9.3605    5.5178  -15.4378 C   0  0  0  0  0  0  0  0  0  0  0  0
   -8.8645    5.7341  -10.2695 C   0  0  0  0  0  0  0  0  0  0  0  0
   -8.2930    6.2647  -14.9336 C   0  0  0  0  0  0  0  0  0  0  0  0
   -8.9929    3.3320  -10.4835 C   0  0  0  0  0  0  0  0  0  0  0  0
   -8.0523    5.0948  -17.4140 C   0  0  0  0  0  0  0  0  0  0  0  0
   -9.2088    4.9442  -16.6834 C   0  0  0  0  0  0  0  0  0  0  0  0
   -8.8485    4.5800  -11.0505 C   0  0  0  0  0  0  0  0  0  0  0  0
   -9.1554    3.2695   -9.0956 C   0  0  0  0  0  0  0  0  0  0  0  0
   -8.6885    6.8678  -11.1681 C   0  0  0  0  0  0  0  0  0  0  0  0
   -8.5767    6.2214  -12.4979 C   0  0  0  0  0  0  0  0  0  0  0  0
   -8.4022    6.8822  -13.6432 C   0  0  0  0  0  0  0  0  0  0  0  0
   -9.4319    3.8774  -18.5526 C   0  0  0  0  0  0  0  0  0  0  0  0
   -8.9752    2.1008  -11.3206 C   0  0  0  0  0  0  0  0  0  0  0  0
   -8.6460    8.0428  -10.8828 O   0  0  0  0  0  0  0  0  0  0  0  0
   -8.6778    4.8393  -12.3910 O   0  0  0  0  0  0  0  0  0  0  0  0
   -8.1095    4.4501  -18.6111 O   0  0  0  0  0  0  0  0  0  0  0  0
  -10.1349    4.1865  -17.3317 O   0  0  0  0  0  0  0  0  0  0  0  0
   -9.3031    2.0639   -8.4730 O   0  0  0  0  0  0  0  0  0  0  0  0
   -9.0347    6.6025   -8.3008 H   0  0  0  0  0  0  0  0  0  0  0  0
   -6.2812    7.0006  -15.2853 H   0  0  0  0  0  0  0  0  0  0  0  0
   -6.0748    5.9439  -17.5182 H   0  0  0  0  0  0  0  0  0  0  0  0
   -9.2986    4.3696   -7.2348 H   0  0  0  0  0  0  0  0  0  0  0  0
  -10.2801    5.3877  -14.8765 H   0  0  0  0  0  0  0  0  0  0  0  0
   -8.3093    7.9673  -13.5917 H   0  0  0  0  0  0  0  0  0  0  0  0
  -10.0161    4.2555  -19.3995 H   0  0  0  0  0  0  0  0  0  0  0  0
   -9.3466    2.7884  -18.6419 H   0  0  0  0  0  0  0  0  0  0  0  0
   -7.9512    1.7181  -11.4198 H   0  0  0  0  0  0  0  0  0  0  0  0
   -9.5993    1.3095  -10.8830 H   0  0  0  0  0  0  0  0  0  0  0  0
   -9.3713    2.2945  -12.3270 H   0  0  0  0  0  0  0  0  0  0  0  0
   -9.4042    2.1931   -7.5178 H   0  0  0  0  0  0  0  0  0  0  0  0
  1  4  1  0  0  0  0
  1  6  2  0  0  0  0
  2  3  1  0  0  0  0
  2  7  2  0  0  0  0
  3  9  2  0  0  0  0
  4 12  2  0  0  0  0
  5  7  1  0  0  0  0
  5 10  2  0  0  0  0
  6 11  1  0  0  0  0
  6 13  1  0  0  0  0
  7 15  1  0  0  0  0
  8 11  2  0  0  0  0
  8 12  1  0  0  0  0
  8 17  1  0  0  0  0
  9 10  1  0  0  0  0
  9 20  1  0  0  0  0
 10 21  1  0  0  0  0
 11 19  1  0  0  0  0
 12 22  1  0  0  0  0
 13 14  1  0  0  0  0
 13 18  2  0  0  0  0
 14 15  2  3  0  0  0
 14 19  1  0  0  0  0
 16 20  1  0  0  0  0
 16 21  1  0  0  0  0
  1 23  1  0  0  0  0
  2 24  1  0  0  0  0
  3 25  1  0  0  0  0
  4 26  1  0  0  0  0
  5 27  1  0  0  0  0
 15 28  1  0  0  0  0
 16 29  1  0  0  0  0
 16 30  1  0  0  0  0
 17 31  1  0  0  0  0
 17 32  1  0  0  0  0
 17 33  1  0  0  0  0
 22 34  1  0  0  0  0
M  END
> <id>
EN300-36365

> <smiles>
CC=1C=2OC(=CC=3C=CC=4OCOC4C3)C(=O)C2C=CC1O

> <IUPAC Name>
2-[(1,3-dioxaindan-5-yl)methylidene]-6-hydroxy-7-methyl-2,3-dihydro-1-benzofuran-3-one

> <CAS>
859131-56-9

> <URL>
https://www.enaminestore.com/catalog/EN300-36365

> <ROCS_ShapeQuery>
_x0404_0B

> <ROCS_TanimotoCombo>
0.468 

> <ROCS_ShapeTanimoto>
0.383 

> <ROCS_ColorTanimoto>
0.085 

> <ROCS_RefTversky>
0.332 

> <ROCS_RefColorTversky>
0.093 

> <ROCS_RefTverskyCombo>
0.425 

> <ROCS_FitTversky>
1.653 

> <ROCS_FitColorTversky>
0.504 

> <ROCS_FitTverskyCombo>
2.157 

> <ROCS_ColorScore>
-6.717

> <ROCS_Overlap>
2220.012

> <ROCS_Rank>
31                  

$$$$
untitled-dbase-154997_1344
  -OEChem-08222312023D

 57 58  0     1  0  0  0  0  0999 V2000
   -9.3182    7.2367  -11.2811 C   0  0  0  0  0  0  0  0  0  0  0  0
   -9.3574    6.7249   -9.9940 C   0  0  0  0  0  0  0  0  0  0  0  0
   -8.9455    6.4101  -12.3363 C   0  0  0  0  0  0  0  0  0  0  0  0
   -9.0162    5.3907   -9.7600 C   0  0  0  0  0  0  0  0  0  0  0  0
   -8.6280    5.0507  -12.1284 C   0  0  0  0  0  0  0  0  0  0  0  0
   -8.6458    4.5299  -10.8105 C   0  0  0  0  0  0  0  0  0  0  0  0
   -8.5091    2.4856   -9.3578 C   0  0  0  0  0  0  0  0  0  0  0  0
   -8.7206    4.8097  -15.7178 C   0  0  0  0  0  0  0  0  0  0  0  0
   -7.4812    2.5177  -11.6402 C   0  0  0  0  0  0  0  0  0  0  0  0
   -8.2291    4.2056  -13.3278 C   0  0  1  0  0  0  0  0  0  0  0  0
   -8.1568    2.7154  -12.9859 C   0  0  1  0  0  0  0  0  0  0  0  0
   -8.2054    2.2809   -6.5124 C   0  0  0  0  0  0  0  0  0  0  0  0
  -10.2778    3.6935   -6.3748 C   0  0  0  0  0  0  0  0  0  0  0  0
  -10.3793    1.4255   -7.4488 C   0  0  0  0  0  0  0  0  0  0  0  0
   -7.6357    4.2931  -18.3159 C   0  0  0  0  0  0  0  0  0  0  0  0
  -10.0202    4.0052  -19.0511 C   0  0  0  0  0  0  0  0  0  0  0  0
   -9.2454    6.2216  -18.1592 C   0  0  0  0  0  0  0  0  0  0  0  0
  -10.5480    3.9832  -14.2170 C   0  0  0  0  0  0  0  0  0  0  0  0
   -9.5149    2.6610   -7.2019 C   0  0  0  0  0  0  0  0  0  0  0  0
   -9.0859    4.7048  -18.0663 C   0  0  0  0  0  0  0  0  0  0  0  0
   -8.2368    3.1683  -10.5617 N   0  0  0  0  0  0  0  0  0  0  0  0
   -9.1543    4.3477  -14.4630 N   0  0  0  0  0  0  0  0  0  0  0  0
   -8.1678    1.3371   -9.0856 O   0  0  0  0  0  0  0  0  0  0  0  0
   -7.7893    5.5937  -15.8919 O   0  0  0  0  0  0  0  0  0  0  0  0
   -7.3881    2.0484  -13.9865 O   0  0  0  0  0  0  0  0  0  0  0  0
   -9.2071    3.2623   -8.4655 O   0  0  0  0  0  0  0  0  0  0  0  0
   -9.4578    4.2870  -16.7476 O   0  0  0  0  0  0  0  0  0  0  0  0
   -9.5871    8.2729  -11.4679 H   0  0  0  0  0  0  0  0  0  0  0  0
   -9.6612    7.3591   -9.1673 H   0  0  0  0  0  0  0  0  0  0  0  0
   -8.9074    6.8315  -13.3403 H   0  0  0  0  0  0  0  0  0  0  0  0
   -9.0836    5.0644   -8.7312 H   0  0  0  0  0  0  0  0  0  0  0  0
   -7.3939    1.4629  -11.3876 H   0  0  0  0  0  0  0  0  0  0  0  0
   -6.4837    2.9466  -11.6992 H   0  0  0  0  0  0  0  0  0  0  0  0
   -7.2467    4.5218  -13.7014 H   0  0  0  0  0  0  0  0  0  0  0  0
   -9.1391    2.2697  -12.9871 H   0  0  0  0  0  0  0  0  0  0  0  0
   -7.6548    1.5399   -7.1030 H   0  0  0  0  0  0  0  0  0  0  0  0
   -7.5612    3.1532   -6.3611 H   0  0  0  0  0  0  0  0  0  0  0  0
   -8.3968    1.8186   -5.5373 H   0  0  0  0  0  0  0  0  0  0  0  0
  -11.2181    3.9692   -6.8658 H   0  0  0  0  0  0  0  0  0  0  0  0
   -9.6988    4.6188   -6.2751 H   0  0  0  0  0  0  0  0  0  0  0  0
  -10.5072    3.3184   -5.3722 H   0  0  0  0  0  0  0  0  0  0  0  0
  -11.3187    1.6979   -7.9434 H   0  0  0  0  0  0  0  0  0  0  0  0
   -9.8616    0.6891   -8.0720 H   0  0  0  0  0  0  0  0  0  0  0  0
  -10.6556    0.9477   -6.5019 H   0  0  0  0  0  0  0  0  0  0  0  0
   -6.9619    4.7932  -17.6110 H   0  0  0  0  0  0  0  0  0  0  0  0
   -7.5009    3.2110  -18.2177 H   0  0  0  0  0  0  0  0  0  0  0  0
   -7.3113    4.5927  -19.3190 H   0  0  0  0  0  0  0  0  0  0  0  0
  -11.0618    4.2976  -18.8757 H   0  0  0  0  0  0  0  0  0  0  0  0
   -9.9791    2.9175  -18.9227 H   0  0  0  0  0  0  0  0  0  0  0  0
   -9.7638    4.2417  -20.0888 H   0  0  0  0  0  0  0  0  0  0  0  0
  -10.2856    6.5171  -17.9802 H   0  0  0  0  0  0  0  0  0  0  0  0
   -8.6094    6.7392  -17.4338 H   0  0  0  0  0  0  0  0  0  0  0  0
   -8.9908    6.5794  -19.1634 H   0  0  0  0  0  0  0  0  0  0  0  0
  -10.6941    2.9168  -14.4435 H   0  0  0  0  0  0  0  0  0  0  0  0
  -10.7952    4.1710  -13.1617 H   0  0  0  0  0  0  0  0  0  0  0  0
  -11.2040    4.5879  -14.8604 H   0  0  0  0  0  0  0  0  0  0  0  0
   -7.8472    2.1957  -14.8269 H   0  0  0  0  0  0  0  0  0  0  0  0
  1  2  2  0  0  0  0
  1  3  1  0  0  0  0
  2  4  1  0  0  0  0
  3  5  2  0  0  0  0
  4  6  2  0  0  0  0
  5  6  1  0  0  0  0
  5 10  1  0  0  0  0
  6 21  1  0  0  0  0
  7 21  1  0  0  0  0
  7 23  2  0  0  0  0
  7 26  1  0  0  0  0
  8 22  1  0  0  0  0
  8 24  2  0  0  0  0
  8 27  1  0  0  0  0
  9 11  1  0  0  0  0
  9 21  1  0  0  0  0
 10 11  1  0  0  0  0
 10 22  1  6  0  0  0
 11 25  1  1  0  0  0
 12 19  1  0  0  0  0
 13 19  1  0  0  0  0
 14 19  1  0  0  0  0
 15 20  1  0  0  0  0
 16 20  1  0  0  0  0
 17 20  1  0  0  0  0
 18 22  1  0  0  0  0
 19 26  1  0  0  0  0
 20 27  1  0  0  0  0
  1 28  1  0  0  0  0
  2 29  1  0  0  0  0
  3 30  1  0  0  0  0
  4 31  1  0  0  0  0
  9 32  1  0  0  0  0
  9 33  1  0  0  0  0
 10 34  1  0  0  0  0
 11 35  1  0  0  0  0
 12 36  1  0  0  0  0
 12 37  1  0  0  0  0
 12 38  1  0  0  0  0
 13 39  1  0  0  0  0
 13 40  1  0  0  0  0
 13 41  1  0  0  0  0
 14 42  1  0  0  0  0
 14 43  1  0  0  0  0
 14 44  1  0  0  0  0
 15 45  1  0  0  0  0
 15 46  1  0  0  0  0
 15 47  1  0  0  0  0
 16 48  1  0  0  0  0
 16 49  1  0  0  0  0
 16 50  1  0  0  0  0
 17 51  1  0  0  0  0
 17 52  1  0  0  0  0
 17 53  1  0  0  0  0
 18 54  1  0  0  0  0
 18 55  1  0  0  0  0
 18 56  1  0  0  0  0
 25 57  1  0  0  0  0
M  END
> <id>
EN300-28301710

> <smiles>
CN([C@@H]1[C@@H](O)CN(C(=O)OC(C)(C)C)C=2C=CC=CC12)C(=O)OC(C)(C)C |&1:2,3,r|

> <IUPAC Name>
rac-tert-butyl (3R,4R)-4-{[(tert-butoxy)carbonyl](methyl)amino}-3-hydroxy-1,2,3,4-tetrahydroquinoline-1-carboxylate

> <CAS>
2679932-86-4

> <URL>
https://www.enaminestore.com/catalog/EN300-28301710

> <ROCS_ShapeQuery>
_x0404_0B

> <ROCS_TanimotoCombo>
0.468 

> <ROCS_ShapeTanimoto>
0.364 

> <ROCS_ColorTanimoto>
0.103 

> <ROCS_RefTversky>
0.327 

> <ROCS_RefColorTversky>
0.108 

> <ROCS_RefTverskyCombo>
0.435 

> <ROCS_FitTversky>
1.464 

> <ROCS_FitColorTversky>
0.687 

> <ROCS_FitTverskyCombo>
2.151 

> <ROCS_ColorScore>
-7.825

> <ROCS_Overlap>
2183.590

> <ROCS_Rank>
32                  

$$$$
untitled-dbase-103718_55
  -OEChem-08222312023D

 58 61  0     1  0  0  0  0  0999 V2000
   -8.7749    4.0268   -9.5890 B   0  0  0  0  0  0  0  0  0  0  0  0
   -7.1127    4.9556  -18.8451 C   0  0  0  0  0  0  0  0  0  0  0  0
   -9.4415    6.2668  -14.1549 C   0  0  0  0  0  0  0  0  0  0  0  0
   -9.1739    6.5148  -10.5337 C   0  0  0  0  0  0  0  0  0  0  0  0
   -8.9714    7.1730  -11.8911 C   0  0  0  0  0  0  0  0  0  0  0  0
   -9.2425    5.6404  -17.6058 C   0  0  0  0  0  0  0  0  0  0  0  0
   -9.7459    5.0546  -16.2925 C   0  0  0  0  0  0  0  0  0  0  0  0
   -8.7833    4.7895  -12.1705 C   0  0  0  0  0  0  0  0  0  0  0  0
   -5.5787    5.1975  -17.0507 C   0  0  0  0  0  0  0  0  0  0  0  0
   -7.4638    5.1821  -15.2992 C   0  0  0  0  0  0  0  0  0  0  0  0
   -8.5054    5.1468  -10.7042 C   0  0  2  0  0  0  0  0  0  0  0  0
   -6.9372    5.7467  -16.6196 C   0  0  2  0  0  0  0  0  0  0  0  0
   -9.0679    3.0725   -7.5297 C   0  0  0  0  0  0  0  0  0  0  0  0
   -9.1970    1.9841   -8.6479 C   0  0  0  0  0  0  0  0  0  0  0  0
  -10.2216    3.0908   -6.5170 C   0  0  0  0  0  0  0  0  0  0  0  0
   -7.7423    3.0347   -6.7365 C   0  0  0  0  0  0  0  0  0  0  0  0
  -10.6422    1.5214   -8.9404 C   0  0  0  0  0  0  0  0  0  0  0  0
   -8.3380    0.7313   -8.4247 C   0  0  0  0  0  0  0  0  0  0  0  0
   -4.6721    4.3976  -19.2791 C   0  0  0  0  0  0  0  0  0  0  0  0
   -7.8154    5.4183  -17.7239 N   0  0  0  0  0  0  0  0  0  0  0  0
   -5.7621    4.8715  -18.4549 N   0  0  0  0  0  0  0  0  0  0  0  0
   -8.9697    6.0764  -12.8536 N   0  0  0  0  0  0  0  0  0  0  0  0
   -8.9047    5.4489  -15.1547 N   0  0  0  0  0  0  0  0  0  0  0  0
   -7.5822    4.6708  -19.9391 O   0  0  0  0  0  0  0  0  0  0  0  0
  -10.3296    7.0904  -14.4080 O   0  0  0  0  0  0  0  0  0  0  0  0
   -9.0899    4.3369   -8.2678 O   0  0  0  0  0  0  0  0  0  0  0  0
   -8.7111    2.6604   -9.8524 O   0  0  0  0  0  0  0  0  0  0  0  0
   -8.7305    7.1060   -9.7225 H   0  0  0  0  0  0  0  0  0  0  0  0
  -10.2480    6.4081  -10.3246 H   0  0  0  0  0  0  0  0  0  0  0  0
   -9.7471    7.9117  -12.1233 H   0  0  0  0  0  0  0  0  0  0  0  0
   -7.9863    7.6537  -11.9109 H   0  0  0  0  0  0  0  0  0  0  0  0
   -9.7559    5.2015  -18.4596 H   0  0  0  0  0  0  0  0  0  0  0  0
   -9.3979    6.7199  -17.6232 H   0  0  0  0  0  0  0  0  0  0  0  0
  -10.7698    5.4050  -16.1550 H   0  0  0  0  0  0  0  0  0  0  0  0
   -9.7441    3.9591  -16.3353 H   0  0  0  0  0  0  0  0  0  0  0  0
   -7.9622    4.2435  -12.6451 H   0  0  0  0  0  0  0  0  0  0  0  0
   -9.7031    4.2062  -12.2919 H   0  0  0  0  0  0  0  0  0  0  0  0
   -4.7869    5.9463  -16.9563 H   0  0  0  0  0  0  0  0  0  0  0  0
   -5.2954    4.2837  -16.5194 H   0  0  0  0  0  0  0  0  0  0  0  0
   -7.3432    4.0941  -15.2674 H   0  0  0  0  0  0  0  0  0  0  0  0
   -6.9030    5.5966  -14.4578 H   0  0  0  0  0  0  0  0  0  0  0  0
   -7.4183    5.3242  -10.6341 H   0  0  0  0  0  0  0  0  0  0  0  0
   -6.8889    6.8501  -16.5651 H   0  0  0  0  0  0  0  0  0  0  0  0
  -10.0389    3.8729   -5.7908 H   0  0  0  0  0  0  0  0  0  0  0  0
  -10.2693    2.1291   -6.0218 H   0  0  0  0  0  0  0  0  0  0  0  0
  -11.1480    3.2830   -7.0437 H   0  0  0  0  0  0  0  0  0  0  0  0
   -7.7464    3.8222   -5.9885 H   0  0  0  0  0  0  0  0  0  0  0  0
   -6.9097    3.1853   -7.4174 H   0  0  0  0  0  0  0  0  0  0  0  0
   -7.6415    2.0701   -6.2475 H   0  0  0  0  0  0  0  0  0  0  0  0
  -10.6291    0.7707   -9.7251 H   0  0  0  0  0  0  0  0  0  0  0  0
  -11.2355    2.3723   -9.2620 H   0  0  0  0  0  0  0  0  0  0  0  0
  -11.0748    1.0970   -8.0391 H   0  0  0  0  0  0  0  0  0  0  0  0
   -8.4978    0.0452   -9.2470 H   0  0  0  0  0  0  0  0  0  0  0  0
   -8.6312    0.2664   -7.4919 H   0  0  0  0  0  0  0  0  0  0  0  0
   -7.2962    1.0231   -8.3824 H   0  0  0  0  0  0  0  0  0  0  0  0
   -4.2359    5.2424  -19.8323 H   0  0  0  0  0  0  0  0  0  0  0  0
   -3.9017    3.9406  -18.6406 H   0  0  0  0  0  0  0  0  0  0  0  0
   -5.0496    3.6490  -19.9911 H   0  0  0  0  0  0  0  0  0  0  0  0
  1 11  1  0  0  0  0
  1 26  1  0  0  0  0
  1 27  1  0  0  0  0
  2 20  1  0  0  0  0
  2 21  1  0  0  0  0
  2 24  2  0  0  0  0
  3 22  1  0  0  0  0
  3 23  1  0  0  0  0
  3 25  2  0  0  0  0
  4  5  1  0  0  0  0
  4 11  1  0  0  0  0
  5 22  1  0  0  0  0
  6  7  1  0  0  0  0
  6 20  1  0  0  0  0
  7 23  1  0  0  0  0
  8 11  1  0  0  0  0
  8 22  1  0  0  0  0
  9 12  1  0  0  0  0
  9 21  1  0  0  0  0
 10 12  1  0  0  0  0
 10 23  1  0  0  0  0
 12 20  1  0  0  0  0
 13 14  1  0  0  0  0
 13 15  1  0  0  0  0
 13 16  1  0  0  0  0
 13 26  1  0  0  0  0
 14 17  1  0  0  0  0
 14 18  1  0  0  0  0
 14 27  1  0  0  0  0
 19 21  1  0  0  0  0
  4 28  1  0  0  0  0
  4 29  1  0  0  0  0
  5 30  1  0  0  0  0
  5 31  1  0  0  0  0
  6 32  1  0  0  0  0
  6 33  1  0  0  0  0
  7 34  1  0  0  0  0
  7 35  1  0  0  0  0
  8 36  1  0  0  0  0
  8 37  1  0  0  0  0
  9 38  1  0  0  0  0
  9 39  1  0  0  0  0
 10 40  1  0  0  0  0
 10 41  1  0  0  0  0
 11 42  1  0  0  0  0
 12 43  1  0  0  0  0
 15 44  1  0  0  0  0
 15 45  1  0  0  0  0
 15 46  1  0  0  0  0
 16 47  1  0  0  0  0
 16 48  1  0  0  0  0
 16 49  1  0  0  0  0
 17 50  1  0  0  0  0
 17 51  1  0  0  0  0
 17 52  1  0  0  0  0
 18 53  1  0  0  0  0
 18 54  1  0  0  0  0
 18 55  1  0  0  0  0
 19 56  1  0  0  0  0
 19 57  1  0  0  0  0
 19 58  1  0  0  0  0
M  END
> <id>
EN300-6735727

> <smiles>
CN1CC2CN(CCN2C1=O)C(=O)N3CCC(C3)B4OC(C)(C)C(C)(C)O4

> <IUPAC Name>
2-methyl-7-[3-(4,4,5,5-tetramethyl-1,3,2-dioxaborolan-2-yl)pyrrolidine-1-carbonyl]-octahydroimidazo[1,5-a]pyrazin-3-one

> <URL>
https://www.enaminestore.com/catalog/EN300-6735727

> <ROCS_ShapeQuery>
_x0404_0B

> <ROCS_TanimotoCombo>
0.467 

> <ROCS_ShapeTanimoto>
0.405 

> <ROCS_ColorTanimoto>
0.063 

> <ROCS_RefTversky>
0.353 

> <ROCS_RefColorTversky>
0.068 

> <ROCS_RefTverskyCombo>
0.421 

> <ROCS_FitTversky>
1.569 

> <ROCS_FitColorTversky>
0.432 

> <ROCS_FitTverskyCombo>
2.001 

> <ROCS_ColorScore>
-4.924

> <ROCS_Overlap>
2358.734

> <ROCS_Rank>
33                  

$$$$
untitled-dbase-115625_127
  -OEChem-08222312023D

 51 55  0     1  0  0  0  0  0999 V2000
   -7.7831    6.2426  -16.2055 C   0  0  0  0  0  0  0  0  0  0  0  0
   -9.1859    3.5178  -10.5443 C   0  0  0  0  0  0  0  0  0  0  0  0
   -8.4492    5.6529   -8.9236 C   0  0  0  0  0  0  0  0  0  0  0  0
   -9.5843    4.6945  -16.0815 C   0  0  0  0  0  0  0  0  0  0  0  0
   -8.9631    5.8332  -15.5945 C   0  0  0  0  0  0  0  0  0  0  0  0
   -8.8919    4.7646  -11.1303 C   0  0  0  0  0  0  0  0  0  0  0  0
   -8.5325    5.8569  -10.3129 C   0  0  0  0  0  0  0  0  0  0  0  0
   -9.1188    3.3456   -9.1650 C   0  0  0  0  0  0  0  0  0  0  0  0
   -8.7254    4.4065   -8.3573 C   0  0  0  0  0  0  0  0  0  0  0  0
   -7.2676    5.5111  -17.2697 C   0  0  0  0  0  0  0  0  0  0  0  0
   -7.9646    4.3867  -17.6815 C   0  0  0  0  0  0  0  0  0  0  0  0
   -9.5340    6.5855  -14.4681 C   0  0  0  0  0  0  0  0  0  0  0  0
   -7.1096    8.7766   -9.4232 C   0  0  0  0  0  0  0  0  0  0  0  0
   -6.0906    7.8692  -10.0964 C   0  0  0  0  0  0  0  0  0  0  0  0
   -8.4697    8.4375  -10.0403 C   0  0  0  0  0  0  0  0  0  0  0  0
   -6.7783    7.3674  -11.3593 C   0  0  0  0  0  0  0  0  0  0  0  0
   -9.2038    7.3520  -12.1741 C   0  0  0  0  0  0  0  0  0  0  0  0
   -9.6609    2.1413   -7.2579 C   0  0  0  0  0  0  0  0  0  0  0  0
   -8.5651    2.9329   -6.5711 C   0  0  0  0  0  0  0  0  0  0  0  0
   -8.9429    4.8782  -12.6470 C   0  0  2  0  0  0  0  0  0  0  0  0
   -8.2598    7.2090  -10.9662 C   0  0  0  0  0  0  0  0  0  0  0  0
   -7.6752    4.2445  -13.2416 C   0  0  0  0  0  0  0  0  0  0  0  0
   -9.1138    3.9580  -17.1129 N   0  0  0  0  0  0  0  0  0  0  0  0
   -9.1619    6.2580  -13.1476 N   0  0  0  0  0  0  0  0  0  0  0  0
  -10.3415    7.4629  -14.7789 O   0  0  0  0  0  0  0  0  0  0  0  0
   -9.4365    2.1087   -8.6701 O   0  0  0  0  0  0  0  0  0  0  0  0
   -8.6002    4.2980   -6.9965 O   0  0  0  0  0  0  0  0  0  0  0  0
   -5.8043    6.0320  -18.0121 Cl  0  0  0  0  0  0  0  0  0  0  0  0
   -7.4464    3.3850  -18.9836 Cl  0  0  0  0  0  0  0  0  0  0  0  0
   -7.2697    7.1321  -15.8473 H   0  0  0  0  0  0  0  0  0  0  0  0
   -9.4660    2.6759  -11.1722 H   0  0  0  0  0  0  0  0  0  0  0  0
   -8.1913    6.4748   -8.2606 H   0  0  0  0  0  0  0  0  0  0  0  0
  -10.5080    4.3249  -15.6461 H   0  0  0  0  0  0  0  0  0  0  0  0
   -7.1154    8.6484   -8.3234 H   0  0  0  0  0  0  0  0  0  0  0  0
   -6.8614    9.8403   -9.6135 H   0  0  0  0  0  0  0  0  0  0  0  0
   -5.1523    8.3989  -10.3191 H   0  0  0  0  0  0  0  0  0  0  0  0
   -5.8388    7.0260   -9.4334 H   0  0  0  0  0  0  0  0  0  0  0  0
   -9.1733    8.2133   -9.2189 H   0  0  0  0  0  0  0  0  0  0  0  0
   -8.8910    9.3124  -10.5618 H   0  0  0  0  0  0  0  0  0  0  0  0
   -6.6526    8.1303  -12.1355 H   0  0  0  0  0  0  0  0  0  0  0  0
   -6.3053    6.4594  -11.7390 H   0  0  0  0  0  0  0  0  0  0  0  0
  -10.2475    7.5199  -11.8226 H   0  0  0  0  0  0  0  0  0  0  0  0
   -8.9630    8.2805  -12.7444 H   0  0  0  0  0  0  0  0  0  0  0  0
   -9.7076    1.1100   -6.8866 H   0  0  0  0  0  0  0  0  0  0  0  0
  -10.6342    2.6114   -7.0858 H   0  0  0  0  0  0  0  0  0  0  0  0
   -8.6693    2.9036   -5.4796 H   0  0  0  0  0  0  0  0  0  0  0  0
   -7.5828    2.5276   -6.8322 H   0  0  0  0  0  0  0  0  0  0  0  0
   -9.8012    4.2708  -12.9783 H   0  0  0  0  0  0  0  0  0  0  0  0
   -6.8066    4.8194  -12.9345 H   0  0  0  0  0  0  0  0  0  0  0  0
   -7.7462    4.2445  -14.3252 H   0  0  0  0  0  0  0  0  0  0  0  0
   -7.5804    3.2237  -12.8836 H   0  0  0  0  0  0  0  0  0  0  0  0
  1  5  1  0  0  0  0
  1 10  2  0  0  0  0
  2  6  2  0  0  0  0
  2  8  1  0  0  0  0
  3  7  2  0  0  0  0
  3  9  1  0  0  0  0
  4  5  2  0  0  0  0
  4 23  1  0  0  0  0
  5 12  1  0  0  0  0
  6  7  1  0  0  0  0
  6 20  1  0  0  0  0
  7 21  1  0  0  0  0
  8  9  2  0  0  0  0
  8 26  1  0  0  0  0
  9 27  1  0  0  0  0
 10 11  1  0  0  0  0
 10 28  1  0  0  0  0
 11 23  2  0  0  0  0
 11 29  1  0  0  0  0
 12 24  1  0  0  0  0
 12 25  2  0  0  0  0
 13 14  1  0  0  0  0
 13 15  1  0  0  0  0
 14 16  1  0  0  0  0
 15 21  1  0  0  0  0
 16 21  1  0  0  0  0
 17 21  1  0  0  0  0
 17 24  1  0  0  0  0
 18 19  1  0  0  0  0
 18 26  1  0  0  0  0
 19 27  1  0  0  0  0
 20 22  1  0  0  0  0
 20 24  1  0  0  0  0
  1 30  1  0  0  0  0
  2 31  1  0  0  0  0
  3 32  1  0  0  0  0
  4 33  1  0  0  0  0
 13 34  1  0  0  0  0
 13 35  1  0  0  0  0
 14 36  1  0  0  0  0
 14 37  1  0  0  0  0
 15 38  1  0  0  0  0
 15 39  1  0  0  0  0
 16 40  1  0  0  0  0
 16 41  1  0  0  0  0
 17 42  1  0  0  0  0
 17 43  1  0  0  0  0
 18 44  1  0  0  0  0
 18 45  1  0  0  0  0
 19 46  1  0  0  0  0
 19 47  1  0  0  0  0
 20 48  1  0  0  0  0
 22 49  1  0  0  0  0
 22 50  1  0  0  0  0
 22 51  1  0  0  0  0
M  END
> <id>
EN300-26621174

> <smiles>
CC1N(CC2(CCCC2)C=3C=C4OCCOC4=CC13)C(=O)C=5C=NC(Cl)=C(Cl)C5

> <IUPAC Name>
7-(5,6-dichloropyridine-3-carbonyl)-6-methyl-3,6,7,8-tetrahydro-2H-spiro[[1,4]dioxino[2,3-g]isoquinoline-9,1'-cyclopentane]

> <CAS>
938790-35-3

> <URL>
https://www.enaminestore.com/catalog/EN300-26621174

> <ROCS_ShapeQuery>
_x0404_0B

> <ROCS_TanimotoCombo>
0.467 

> <ROCS_ShapeTanimoto>
0.398 

> <ROCS_ColorTanimoto>
0.069 

> <ROCS_RefTversky>
0.353 

> <ROCS_RefColorTversky>
0.075 

> <ROCS_RefTverskyCombo>
0.429 

> <ROCS_FitTversky>
1.470 

> <ROCS_FitColorTversky>
0.441 

> <ROCS_FitTverskyCombo>
1.911 

> <ROCS_ColorScore>
-5.445

> <ROCS_Overlap>
2363.347

> <ROCS_Rank>
34                  

$$$$
untitled-dbase-149645_38
  -OEChem-08222312023D

 50 54  0     0  0  0  0  0  0999 V2000
   -9.1571    2.2250   -5.8182 C   0  0  0  0  0  0  0  0  0  0  0  0
   -5.3989    6.4462  -17.4910 C   0  0  0  0  0  0  0  0  0  0  0  0
  -12.2347    4.4377  -15.4042 C   0  0  0  0  0  0  0  0  0  0  0  0
   -5.3866    5.6077  -18.5917 C   0  0  0  0  0  0  0  0  0  0  0  0
  -12.4130    3.5892  -16.4828 C   0  0  0  0  0  0  0  0  0  0  0  0
   -8.3212    3.9817   -7.3000 C   0  0  0  0  0  0  0  0  0  0  0  0
   -9.7691    2.2622   -8.1855 C   0  0  0  0  0  0  0  0  0  0  0  0
   -6.4924    6.4342  -16.6223 C   0  0  0  0  0  0  0  0  0  0  0  0
  -11.0108    5.0873  -15.2270 C   0  0  0  0  0  0  0  0  0  0  0  0
   -8.2478    4.5700   -8.5626 C   0  0  0  0  0  0  0  0  0  0  0  0
   -9.6957    2.8505   -9.4481 C   0  0  0  0  0  0  0  0  0  0  0  0
   -6.4707    4.7665  -18.8188 C   0  0  0  0  0  0  0  0  0  0  0  0
  -11.3622    3.3882  -17.3714 C   0  0  0  0  0  0  0  0  0  0  0  0
   -9.0819    2.8277   -7.1115 C   0  0  0  0  0  0  0  0  0  0  0  0
   -8.9350    4.0044   -9.6366 C   0  0  0  0  0  0  0  0  0  0  0  0
   -7.6044    5.5819  -16.8218 C   0  0  0  0  0  0  0  0  0  0  0  0
   -9.9311    4.9179  -16.1254 C   0  0  0  0  0  0  0  0  0  0  0  0
   -7.5790    4.7494  -17.9480 C   0  0  0  0  0  0  0  0  0  0  0  0
  -10.1238    4.0391  -17.1995 C   0  0  0  0  0  0  0  0  0  0  0  0
   -8.6066    6.4730  -14.7598 C   0  0  0  0  0  0  0  0  0  0  0  0
   -8.6714    6.0378  -11.0420 C   0  0  0  0  0  0  0  0  0  0  0  0
   -8.9861    3.7848  -12.1140 C   0  0  0  0  0  0  0  0  0  0  0  0
   -9.2460    6.5259  -12.3697 C   0  0  0  0  0  0  0  0  0  0  0  0
   -8.2365    4.4392  -13.2742 C   0  0  0  0  0  0  0  0  0  0  0  0
   -9.2181    1.7354   -4.7677 N   0  0  0  0  0  0  0  0  0  0  0  0
   -8.6968    5.6206  -15.8807 N   0  0  0  0  0  0  0  0  0  0  0  0
   -8.8616    4.5918  -10.8972 N   0  0  0  0  0  0  0  0  0  0  0  0
   -8.6733    5.8193  -13.5114 N   0  0  0  0  0  0  0  0  0  0  0  0
   -8.4854    7.6966  -14.8815 O   0  0  0  0  0  0  0  0  0  0  0  0
   -8.8736    3.6276  -18.3784 S   0  0  0  0  0  0  0  0  0  0  0  0
   -4.5615    7.1107  -17.3004 H   0  0  0  0  0  0  0  0  0  0  0  0
  -13.0433    4.6017  -14.6982 H   0  0  0  0  0  0  0  0  0  0  0  0
   -4.5388    5.6030  -19.2695 H   0  0  0  0  0  0  0  0  0  0  0  0
  -13.3657    3.0934  -16.6400 H   0  0  0  0  0  0  0  0  0  0  0  0
   -7.7800    4.4343   -6.4726 H   0  0  0  0  0  0  0  0  0  0  0  0
  -10.3662    1.3628   -8.0543 H   0  0  0  0  0  0  0  0  0  0  0  0
   -6.4411    7.1141  -15.7750 H   0  0  0  0  0  0  0  0  0  0  0  0
  -10.9332    5.7355  -14.3576 H   0  0  0  0  0  0  0  0  0  0  0  0
   -7.6522    5.4691   -8.6986 H   0  0  0  0  0  0  0  0  0  0  0  0
  -10.2350    2.4016  -10.2783 H   0  0  0  0  0  0  0  0  0  0  0  0
   -6.4388    4.1162  -19.6916 H   0  0  0  0  0  0  0  0  0  0  0  0
  -11.5260    2.7165  -18.2128 H   0  0  0  0  0  0  0  0  0  0  0  0
   -7.6018    6.2767  -11.0044 H   0  0  0  0  0  0  0  0  0  0  0  0
   -9.1577    6.5631  -10.2102 H   0  0  0  0  0  0  0  0  0  0  0  0
  -10.0388    3.6603  -12.3968 H   0  0  0  0  0  0  0  0  0  0  0  0
   -8.5844    2.7827  -11.9222 H   0  0  0  0  0  0  0  0  0  0  0  0
  -10.3342    6.4084  -12.3582 H   0  0  0  0  0  0  0  0  0  0  0  0
   -9.0326    7.5936  -12.5012 H   0  0  0  0  0  0  0  0  0  0  0  0
   -7.1595    4.4288  -13.0765 H   0  0  0  0  0  0  0  0  0  0  0  0
   -8.4003    3.8834  -14.2048 H   0  0  0  0  0  0  0  0  0  0  0  0
  1 14  1  0  0  0  0
  1 25  3  0  0  0  0
  2  4  2  0  0  0  0
  2  8  1  0  0  0  0
  3  5  2  0  0  0  0
  3  9  1  0  0  0  0
  4 12  1  0  0  0  0
  5 13  1  0  0  0  0
  6 10  1  0  0  0  0
  6 14  2  0  0  0  0
  7 11  2  0  0  0  0
  7 14  1  0  0  0  0
  8 16  2  0  0  0  0
  9 17  2  0  0  0  0
 10 15  2  0  0  0  0
 11 15  1  0  0  0  0
 12 18  2  0  0  0  0
 13 19  2  0  0  0  0
 15 27  1  0  0  0  0
 16 18  1  0  0  0  0
 16 26  1  0  0  0  0
 17 19  1  0  0  0  0
 17 26  1  0  0  0  0
 18 30  1  0  0  0  0
 19 30  1  0  0  0  0
 20 26  1  0  0  0  0
 20 28  1  0  0  0  0
 20 29  2  0  0  0  0
 21 23  1  0  0  0  0
 21 27  1  0  0  0  0
 22 24  1  0  0  0  0
 22 27  1  0  0  0  0
 23 28  1  0  0  0  0
 24 28  1  0  0  0  0
  2 31  1  0  0  0  0
  3 32  1  0  0  0  0
  4 33  1  0  0  0  0
  5 34  1  0  0  0  0
  6 35  1  0  0  0  0
  7 36  1  0  0  0  0
  8 37  1  0  0  0  0
  9 38  1  0  0  0  0
 10 39  1  0  0  0  0
 11 40  1  0  0  0  0
 12 41  1  0  0  0  0
 13 42  1  0  0  0  0
 21 43  1  0  0  0  0
 21 44  1  0  0  0  0
 22 45  1  0  0  0  0
 22 46  1  0  0  0  0
 23 47  1  0  0  0  0
 23 48  1  0  0  0  0
 24 49  1  0  0  0  0
 24 50  1  0  0  0  0
M  END
> <id>
EN300-27750697

> <smiles>
O=C(N1CCN(CC1)C=2C=CC(C#N)=CC2)N3C=4C=CC=CC4SC=5C=CC=CC35

> <MDLNUMBER>
MFCD33550561

> <IUPAC Name>
4-[4-(10H-phenothiazine-10-carbonyl)piperazin-1-yl]benzonitrile

> <CAS>
2058284-81-2

> <Purity>
95

> <URL>
https://www.enaminestore.com/catalog/EN300-27750697

> <ROCS_ShapeQuery>
_x0404_0B

> <ROCS_TanimotoCombo>
0.467 

> <ROCS_ShapeTanimoto>
0.395 

> <ROCS_ColorTanimoto>
0.071 

> <ROCS_RefTversky>
0.353 

> <ROCS_RefColorTversky>
0.076 

> <ROCS_RefTverskyCombo>
0.429 

> <ROCS_FitTversky>
1.430 

> <ROCS_FitColorTversky>
0.525 

> <ROCS_FitTverskyCombo>
1.955 

> <ROCS_ColorScore>
-5.481

> <ROCS_Overlap>
2365.938

> <ROCS_Rank>
35                  

$$$$
untitled-dbase-89495_2
  -OEChem-08222312023D

 42 46  0     1  0  0  0  0  0999 V2000
   -9.1513    3.1657   -6.6203 C   0  0  0  0  0  0  0  0  0  0  0  0
   -9.1233    2.0410   -7.4357 C   0  0  0  0  0  0  0  0  0  0  0  0
   -9.0863    4.4335   -7.1916 C   0  0  0  0  0  0  0  0  0  0  0  0
   -9.0306    2.1828   -8.8225 C   0  0  0  0  0  0  0  0  0  0  0  0
   -8.9253    5.8580   -9.1701 C   0  0  0  0  0  0  0  0  0  0  0  0
   -8.9926    4.5830   -8.5843 C   0  0  0  0  0  0  0  0  0  0  0  0
   -8.8335    5.9400  -10.5392 C   0  0  0  0  0  0  0  0  0  0  0  0
   -8.9635    3.4345   -9.4254 C   0  0  0  0  0  0  0  0  0  0  0  0
   -8.8121    4.7619  -11.2721 C   0  0  0  0  0  0  0  0  0  0  0  0
   -8.6587    4.3394  -13.7632 C   0  0  0  0  0  0  0  0  0  0  0  0
   -8.7091    5.1188  -12.6800 C   0  0  0  0  0  0  0  0  0  0  0  0
   -8.5538    4.9624  -15.0739 C   0  0  0  0  0  0  0  0  0  0  0  0
   -8.5308    6.3019  -15.1959 C   0  0  0  0  0  0  0  0  0  0  0  0
   -8.5910    7.1838  -13.9760 C   0  0  0  0  0  0  0  0  0  0  0  0
   -7.8190    4.7632  -17.4745 C   0  0  0  0  0  0  0  0  0  0  0  0
   -8.7458    7.1271  -11.4407 C   0  0  0  0  0  0  0  0  0  0  0  0
   -8.4621    6.9536  -16.5346 C   0  0  0  0  0  0  0  0  0  0  0  0
   -8.5304    4.0963  -16.3030 C   0  0  2  0  0  0  0  0  0  0  0  0
  -10.7827    4.8833  -17.0486 C   0  0  0  0  0  0  0  0  0  0  0  0
   -9.9419    3.6912  -16.7345 C   0  0  0  0  0  0  0  0  0  0  0  0
   -8.8737    3.5215  -10.7684 N   0  0  0  0  0  0  0  0  0  0  0  0
   -8.6725    6.5002  -12.7766 N   0  0  0  0  0  0  0  0  0  0  0  0
   -8.5717    8.4081  -14.0787 O   0  0  0  0  0  0  0  0  0  0  0  0
   -7.2168    4.1152  -18.3288 O   0  0  0  0  0  0  0  0  0  0  0  0
   -7.9156    6.1098  -17.5718 O   0  0  0  0  0  0  0  0  0  0  0  0
   -7.7670    2.9150  -16.0465 O   0  0  0  0  0  0  0  0  0  0  0  0
   -9.2236    3.0567   -5.5424 H   0  0  0  0  0  0  0  0  0  0  0  0
   -9.1737    1.0492   -6.9956 H   0  0  0  0  0  0  0  0  0  0  0  0
   -9.1091    5.3049   -6.5406 H   0  0  0  0  0  0  0  0  0  0  0  0
   -9.0105    1.2843   -9.4367 H   0  0  0  0  0  0  0  0  0  0  0  0
   -8.9440    6.7601   -8.5659 H   0  0  0  0  0  0  0  0  0  0  0  0
   -8.7019    3.2590  -13.6841 H   0  0  0  0  0  0  0  0  0  0  0  0
   -9.6362    7.7612  -11.3953 H   0  0  0  0  0  0  0  0  0  0  0  0
   -7.8396    7.7179  -11.2772 H   0  0  0  0  0  0  0  0  0  0  0  0
   -9.4547    7.2851  -16.8568 H   0  0  0  0  0  0  0  0  0  0  0  0
   -7.8108    7.8330  -16.4964 H   0  0  0  0  0  0  0  0  0  0  0  0
  -10.8498    5.5268  -16.1636 H   0  0  0  0  0  0  0  0  0  0  0  0
  -11.7984    4.5838  -17.3284 H   0  0  0  0  0  0  0  0  0  0  0  0
  -10.3427    5.4695  -17.8623 H   0  0  0  0  0  0  0  0  0  0  0  0
   -9.8720    3.0467  -17.6134 H   0  0  0  0  0  0  0  0  0  0  0  0
  -10.4053    3.1138  -15.9318 H   0  0  0  0  0  0  0  0  0  0  0  0
   -7.7846    2.3971  -16.8647 H   0  0  0  0  0  0  0  0  0  0  0  0
  1  2  2  0  0  0  0
  1  3  1  0  0  0  0
  2  4  1  0  0  0  0
  3  6  2  0  0  0  0
  4  8  2  0  0  0  0
  5  6  1  0  0  0  0
  5  7  2  0  0  0  0
  6  8  1  0  0  0  0
  7  9  1  0  0  0  0
  7 16  1  0  0  0  0
  8 21  1  0  0  0  0
  9 11  1  0  0  0  0
  9 21  2  0  0  0  0
 10 11  2  0  0  0  0
 10 12  1  0  0  0  0
 11 22  1  0  0  0  0
 12 13  2  0  0  0  0
 12 18  1  0  0  0  0
 13 14  1  0  0  0  0
 13 17  1  0  0  0  0
 14 22  1  0  0  0  0
 14 23  2  0  0  0  0
 15 18  1  0  0  0  0
 15 24  2  0  0  0  0
 15 25  1  0  0  0  0
 16 22  1  0  0  0  0
 17 25  1  0  0  0  0
 18 20  1  0  0  0  0
 18 26  1  1  0  0  0
 19 20  1  0  0  0  0
  1 27  1  0  0  0  0
  2 28  1  0  0  0  0
  3 29  1  0  0  0  0
  4 30  1  0  0  0  0
  5 31  1  0  0  0  0
 10 32  1  0  0  0  0
 16 33  1  0  0  0  0
 16 34  1  0  0  0  0
 17 35  1  0  0  0  0
 17 36  1  0  0  0  0
 19 37  1  0  0  0  0
 19 38  1  0  0  0  0
 19 39  1  0  0  0  0
 20 40  1  0  0  0  0
 20 41  1  0  0  0  0
 26 42  1  0  0  0  0
M  END
> <id>
EN300-1725804

> <smiles>
CC[C@@]1(O)C(=O)OCC2=C1C=C3C=4N=C5C=CC=CC5=CC4CN3C2=O

> <MDLNUMBER>
MFCD00081076

> <IUPAC Name>
(19S)-19-ethyl-19-hydroxy-17-oxa-3,13-diazapentacyclo[11.8.0.0^{2,11}.0^{4,9}.0^{15,20}]henicosa-1(21),2(11),3,5,7,9,15(20)-heptaene-14,18-dione

> <CAS>
7689-03-4

> <Purity>
95

> <URL>
https://www.enaminestore.com/catalog/EN300-1725804

> <MP>
263-268

> <ROCS_ShapeQuery>
_x0404_0B

> <ROCS_TanimotoCombo>
0.465 

> <ROCS_ShapeTanimoto>
0.402 

> <ROCS_ColorTanimoto>
0.063 

> <ROCS_RefTversky>
0.352 

> <ROCS_RefColorTversky>
0.071 

> <ROCS_RefTverskyCombo>
0.423 

> <ROCS_FitTversky>
1.537 

> <ROCS_FitColorTversky>
0.360 

> <ROCS_FitTverskyCombo>
1.897 

> <ROCS_ColorScore>
-5.135

> <ROCS_Overlap>
2356.342

> <ROCS_Rank>
36                  

$$$$
untitled-dbase-20938_1
  -OEChem-08222312023D

 37 40  0     0  0  0  0  0  0999 V2000
   -6.9637    5.3797  -14.8697 C   0  0  0  0  0  0  0  0  0  0  0  0
   -8.4000    2.4814  -10.0491 C   0  0  0  0  0  0  0  0  0  0  0  0
   -6.7523    5.4361  -16.2476 C   0  0  0  0  0  0  0  0  0  0  0  0
   -8.6120    2.4708   -8.6701 C   0  0  0  0  0  0  0  0  0  0  0  0
   -9.3081    4.9191  -15.2411 C   0  0  0  0  0  0  0  0  0  0  0  0
   -9.0632    4.8448   -8.7144 C   0  0  0  0  0  0  0  0  0  0  0  0
   -8.2385    5.1165  -14.3674 C   0  0  0  0  0  0  0  0  0  0  0  0
   -8.5219    3.6803  -10.7571 C   0  0  0  0  0  0  0  0  0  0  0  0
   -7.8188    5.2258  -17.1223 C   0  0  0  0  0  0  0  0  0  0  0  0
   -9.1003    4.9889  -16.6190 C   0  0  0  0  0  0  0  0  0  0  0  0
   -8.8519    4.8569  -10.0937 C   0  0  0  0  0  0  0  0  0  0  0  0
   -8.9429    3.6506   -8.0034 C   0  0  0  0  0  0  0  0  0  0  0  0
   -8.4622    5.0498  -12.8705 C   0  0  0  0  0  0  0  0  0  0  0  0
   -8.3034    3.7229  -12.2095 C   0  0  0  0  0  0  0  0  0  0  0  0
   -8.7881    6.1144  -12.1087 C   0  0  0  0  0  0  0  0  0  0  0  0
   -8.6036    4.7123  -19.2451 C   0  0  0  0  0  0  0  0  0  0  0  0
   -9.9436    5.2364  -18.7668 C   0  0  0  0  0  0  0  0  0  0  0  0
   -8.9944    7.5071  -12.6347 C   0  0  0  0  0  0  0  0  0  0  0  0
   -8.0036    2.7131  -12.8341 O   0  0  0  0  0  0  0  0  0  0  0  0
   -8.9855    6.0581  -10.7357 O   0  0  0  0  0  0  0  0  0  0  0  0
   -7.5448    5.2736  -18.4643 O   0  0  0  0  0  0  0  0  0  0  0  0
  -10.1933    4.8073  -17.4256 O   0  0  0  0  0  0  0  0  0  0  0  0
   -9.1480    3.6372   -6.6578 O   0  0  0  0  0  0  0  0  0  0  0  0
   -8.8093    7.5447  -13.9676 F   0  0  0  0  0  0  0  0  0  0  0  0
  -10.2433    7.9364  -12.3730 F   0  0  0  0  0  0  0  0  0  0  0  0
   -8.1286    8.3679  -12.0671 F   0  0  0  0  0  0  0  0  0  0  0  0
   -6.1227    5.5390  -14.1990 H   0  0  0  0  0  0  0  0  0  0  0  0
   -8.1424    1.5528  -10.5505 H   0  0  0  0  0  0  0  0  0  0  0  0
   -5.7547    5.6331  -16.6306 H   0  0  0  0  0  0  0  0  0  0  0  0
   -8.5172    1.5387   -8.1194 H   0  0  0  0  0  0  0  0  0  0  0  0
  -10.3061    4.7218  -14.8558 H   0  0  0  0  0  0  0  0  0  0  0  0
   -9.3217    5.7634   -8.1936 H   0  0  0  0  0  0  0  0  0  0  0  0
   -8.5490    3.6188  -19.1749 H   0  0  0  0  0  0  0  0  0  0  0  0
   -8.4345    4.9965  -20.2884 H   0  0  0  0  0  0  0  0  0  0  0  0
   -9.9832    6.3323  -18.7972 H   0  0  0  0  0  0  0  0  0  0  0  0
  -10.7502    4.8478  -19.3963 H   0  0  0  0  0  0  0  0  0  0  0  0
   -9.0284    2.7398   -6.3084 H   0  0  0  0  0  0  0  0  0  0  0  0
  1  3  1  0  0  0  0
  1  7  2  0  0  0  0
  2  4  1  0  0  0  0
  2  8  2  0  0  0  0
  3  9  2  0  0  0  0
  4 12  2  0  0  0  0
  5  7  1  0  0  0  0
  5 10  2  0  0  0  0
  6 11  2  0  0  0  0
  6 12  1  0  0  0  0
  7 13  1  0  0  0  0
  8 11  1  0  0  0  0
  8 14  1  0  0  0  0
  9 10  1  0  0  0  0
  9 21  1  0  0  0  0
 10 22  1  0  0  0  0
 11 20  1  0  0  0  0
 12 23  1  0  0  0  0
 13 14  1  0  0  0  0
 13 15  2  0  0  0  0
 14 19  2  0  0  0  0
 15 18  1  0  0  0  0
 15 20  1  0  0  0  0
 16 17  1  0  0  0  0
 16 21  1  0  0  0  0
 17 22  1  0  0  0  0
 18 24  1  0  0  0  0
 18 25  1  0  0  0  0
 18 26  1  0  0  0  0
  1 27  1  0  0  0  0
  2 28  1  0  0  0  0
  3 29  1  0  0  0  0
  4 30  1  0  0  0  0
  5 31  1  0  0  0  0
  6 32  1  0  0  0  0
 16 33  1  0  0  0  0
 16 34  1  0  0  0  0
 17 35  1  0  0  0  0
 17 36  1  0  0  0  0
 23 37  1  0  0  0  0
M  END
> <id>
EN300-302857

> <smiles>
OC=1C=CC=2C(=O)C(C=3C=CC=4OCCOC4C3)=C(OC2C1)C(F)(F)F

> <MDLNUMBER>
MFCD00525495

> <IUPAC Name>
3-(2,3-dihydro-1,4-benzodioxin-6-yl)-7-hydroxy-2-(trifluoromethyl)-4H-chromen-4-one

> <CAS>
170511-53-2

> <URL>
https://www.enaminestore.com/catalog/EN300-302857

> <ROCS_ShapeQuery>
_x0404_0B

> <ROCS_TanimotoCombo>
0.465 

> <ROCS_ShapeTanimoto>
0.405 

> <ROCS_ColorTanimoto>
0.059 

> <ROCS_RefTversky>
0.354 

> <ROCS_RefColorTversky>
0.066 

> <ROCS_RefTverskyCombo>
0.421 

> <ROCS_FitTversky>
1.554 

> <ROCS_FitColorTversky>
0.362 

> <ROCS_FitTverskyCombo>
1.915 

> <ROCS_ColorScore>
-4.806

> <ROCS_Overlap>
2367.549

> <ROCS_Rank>
37                  

$$$$
untitled-dbase-2122_0
  -OEChem-08222312023D

 31 34  0     0  0  0  0  0  0999 V2000
   -9.0216    5.7054   -8.8970 C   0  0  0  0  0  0  0  0  0  0  0  0
   -7.1134    6.4190  -15.6783 C   0  0  0  0  0  0  0  0  0  0  0  0
   -6.9863    5.8263  -16.9368 C   0  0  0  0  0  0  0  0  0  0  0  0
   -9.1687    4.4471   -8.3082 C   0  0  0  0  0  0  0  0  0  0  0  0
   -9.3619    5.5177  -15.4333 C   0  0  0  0  0  0  0  0  0  0  0  0
   -8.9919    3.3365  -10.4790 C   0  0  0  0  0  0  0  0  0  0  0  0
   -8.8631    5.7386  -10.2660 C   0  0  0  0  0  0  0  0  0  0  0  0
   -8.2943    6.2656  -14.9308 C   0  0  0  0  0  0  0  0  0  0  0  0
   -8.0550    5.0930  -17.4100 C   0  0  0  0  0  0  0  0  0  0  0  0
   -9.2109    4.9427  -16.6784 C   0  0  0  0  0  0  0  0  0  0  0  0
   -8.8476    4.5842  -11.0466 C   0  0  0  0  0  0  0  0  0  0  0  0
   -9.1539    3.2745   -9.0910 C   0  0  0  0  0  0  0  0  0  0  0  0
   -8.6872    6.8719  -11.1652 C   0  0  0  0  0  0  0  0  0  0  0  0
   -8.5761    6.2249  -12.4948 C   0  0  0  0  0  0  0  0  0  0  0  0
   -8.4027    6.8844  -13.6409 C   0  0  0  0  0  0  0  0  0  0  0  0
   -9.4350    3.8738  -18.5463 C   0  0  0  0  0  0  0  0  0  0  0  0
   -8.6444    8.0470  -10.8809 O   0  0  0  0  0  0  0  0  0  0  0  0
   -8.6774    4.8429  -12.3872 O   0  0  0  0  0  0  0  0  0  0  0  0
   -8.1128    4.4469  -18.6063 O   0  0  0  0  0  0  0  0  0  0  0  0
  -10.1372    4.1840  -17.3252 O   0  0  0  0  0  0  0  0  0  0  0  0
   -9.2997    2.0629   -8.4831 O   0  0  0  0  0  0  0  0  0  0  0  0
   -9.0325    6.6079   -8.2977 H   0  0  0  0  0  0  0  0  0  0  0  0
   -6.2830    7.0017  -15.2848 H   0  0  0  0  0  0  0  0  0  0  0  0
   -6.0778    5.9426  -17.5166 H   0  0  0  0  0  0  0  0  0  0  0  0
   -9.2948    4.3749   -7.2305 H   0  0  0  0  0  0  0  0  0  0  0  0
  -10.2810    5.3878  -14.8712 H   0  0  0  0  0  0  0  0  0  0  0  0
   -8.9806    2.4370  -11.0843 H   0  0  0  0  0  0  0  0  0  0  0  0
   -8.3102    7.9697  -13.5907 H   0  0  0  0  0  0  0  0  0  0  0  0
  -10.0199    4.2507  -19.3931 H   0  0  0  0  0  0  0  0  0  0  0  0
   -9.3493    2.7847  -18.6344 H   0  0  0  0  0  0  0  0  0  0  0  0
   -9.4012    2.1796   -7.5258 H   0  0  0  0  0  0  0  0  0  0  0  0
  1  4  1  0  0  0  0
  1  7  2  0  0  0  0
  2  3  1  0  0  0  0
  2  8  2  0  0  0  0
  3  9  2  0  0  0  0
  4 12  2  0  0  0  0
  5  8  1  0  0  0  0
  5 10  2  0  0  0  0
  6 11  2  0  0  0  0
  6 12  1  0  0  0  0
  7 11  1  0  0  0  0
  7 13  1  0  0  0  0
  8 15  1  0  0  0  0
  9 10  1  0  0  0  0
  9 19  1  0  0  0  0
 10 20  1  0  0  0  0
 11 18  1  0  0  0  0
 12 21  1  0  0  0  0
 13 14  1  0  0  0  0
 13 17  2  0  0  0  0
 14 15  2  3  0  0  0
 14 18  1  0  0  0  0
 16 19  1  0  0  0  0
 16 20  1  0  0  0  0
  1 22  1  0  0  0  0
  2 23  1  0  0  0  0
  3 24  1  0  0  0  0
  4 25  1  0  0  0  0
  5 26  1  0  0  0  0
  6 27  1  0  0  0  0
 15 28  1  0  0  0  0
 16 29  1  0  0  0  0
 16 30  1  0  0  0  0
 21 31  1  0  0  0  0
M  END
> <id>
EN300-36440

> <smiles>
OC=1C=CC=2C(=O)C(=CC=3C=CC=4OCOC4C3)OC2C1

> <IUPAC Name>
2-[(1,3-dioxaindan-5-yl)methylidene]-6-hydroxy-2,3-dihydro-1-benzofuran-3-one

> <CAS>
32396-84-2

> <URL>
https://www.enaminestore.com/catalog/EN300-36440

> <ROCS_ShapeQuery>
_x0404_0B

> <ROCS_TanimotoCombo>
0.465 

> <ROCS_ShapeTanimoto>
0.379 

> <ROCS_ColorTanimoto>
0.085 

> <ROCS_RefTversky>
0.329 

> <ROCS_RefColorTversky>
0.093 

> <ROCS_RefTverskyCombo>
0.422 

> <ROCS_FitTversky>
1.687 

> <ROCS_FitColorTversky>
0.504 

> <ROCS_FitTverskyCombo>
2.191 

> <ROCS_ColorScore>
-6.716

> <ROCS_Overlap>
2193.964

> <ROCS_Rank>
38                  

$$$$
untitled-dbase-178746_1847
  -OEChem-08222312023D

 46 48  0     0  0  0  0  0  0999 V2000
  -10.1985    3.6867   -7.6090 C   0  0  0  0  0  0  0  0  0  0  0  0
   -9.3410    1.4460   -7.4398 C   0  0  0  0  0  0  0  0  0  0  0  0
  -10.3078    2.3913   -7.1156 C   0  0  0  0  0  0  0  0  0  0  0  0
   -9.1122    3.9837   -8.4162 C   0  0  0  0  0  0  0  0  0  0  0  0
   -8.2932    1.8433   -8.2547 C   0  0  0  0  0  0  0  0  0  0  0  0
   -8.9459    5.3382   -8.9675 C   0  0  0  0  0  0  0  0  0  0  0  0
   -7.6390    5.3023  -15.3787 C   0  0  0  0  0  0  0  0  0  0  0  0
   -8.3379    6.2987  -14.5432 C   0  0  0  0  0  0  0  0  0  0  0  0
   -9.9069    3.9679  -17.9964 C   0  0  0  0  0  0  0  0  0  0  0  0
   -8.6652    4.3740  -18.7785 C   0  0  0  0  0  0  0  0  0  0  0  0
   -9.7539    4.7328  -16.6888 C   0  0  0  0  0  0  0  0  0  0  0  0
   -7.5956    4.4383  -17.6998 C   0  0  0  0  0  0  0  0  0  0  0  0
   -8.7599    6.8318  -10.9138 C   0  0  0  0  0  0  0  0  0  0  0  0
   -8.9890    4.3820  -11.3208 C   0  0  0  0  0  0  0  0  0  0  0  0
   -9.2637    6.9199  -12.3481 C   0  0  0  0  0  0  0  0  0  0  0  0
   -8.2053    4.6768  -12.5975 C   0  0  0  0  0  0  0  0  0  0  0  0
  -11.4564    2.0181   -6.2414 C   0  0  0  0  0  0  0  0  0  0  0  0
   -8.1533    3.0923   -8.7529 N   0  0  0  0  0  0  0  0  0  0  0  0
   -8.9156    5.4881  -10.3576 N   0  0  0  0  0  0  0  0  0  0  0  0
   -8.3093    4.8572  -16.5013 N   0  0  0  0  0  0  0  0  0  0  0  0
   -8.5825    5.9560  -13.2148 N   0  0  0  0  0  0  0  0  0  0  0  0
   -8.8511    6.2571   -8.1547 O   0  0  0  0  0  0  0  0  0  0  0  0
   -6.5156    4.9295  -15.0417 O   0  0  0  0  0  0  0  0  0  0  0  0
   -8.6543    7.3702  -15.0616 O   0  0  0  0  0  0  0  0  0  0  0  0
  -12.3242    3.0470   -6.0078 F   0  0  0  0  0  0  0  0  0  0  0  0
  -12.2271    1.0116   -6.7505 F   0  0  0  0  0  0  0  0  0  0  0  0
  -11.0600    1.5871   -5.0083 F   0  0  0  0  0  0  0  0  0  0  0  0
   -7.0546    0.7450   -8.7062 Cl  0  0  0  0  0  0  0  0  0  0  0  0
  -10.9426    4.4395   -7.3681 H   0  0  0  0  0  0  0  0  0  0  0  0
   -9.4094    0.4300   -7.0632 H   0  0  0  0  0  0  0  0  0  0  0  0
  -10.8115    4.2949  -18.5238 H   0  0  0  0  0  0  0  0  0  0  0  0
   -9.9672    2.8862  -17.8426 H   0  0  0  0  0  0  0  0  0  0  0  0
   -8.4149    3.6032  -19.5157 H   0  0  0  0  0  0  0  0  0  0  0  0
   -8.7940    5.3263  -19.2985 H   0  0  0  0  0  0  0  0  0  0  0  0
  -10.2279    5.7178  -16.7054 H   0  0  0  0  0  0  0  0  0  0  0  0
  -10.1490    4.1642  -15.8404 H   0  0  0  0  0  0  0  0  0  0  0  0
   -7.0931    3.4789  -17.5416 H   0  0  0  0  0  0  0  0  0  0  0  0
   -6.8430    5.2022  -17.9266 H   0  0  0  0  0  0  0  0  0  0  0  0
   -7.6881    7.0841  -10.8651 H   0  0  0  0  0  0  0  0  0  0  0  0
   -9.2866    7.5679  -10.2875 H   0  0  0  0  0  0  0  0  0  0  0  0
  -10.0332    4.1460  -11.5813 H   0  0  0  0  0  0  0  0  0  0  0  0
   -8.5860    3.4832  -10.8203 H   0  0  0  0  0  0  0  0  0  0  0  0
  -10.3371    6.6905  -12.3906 H   0  0  0  0  0  0  0  0  0  0  0  0
   -9.1374    7.9437  -12.7157 H   0  0  0  0  0  0  0  0  0  0  0  0
   -7.1258    4.6680  -12.3807 H   0  0  0  0  0  0  0  0  0  0  0  0
   -8.3824    3.8892  -13.3481 H   0  0  0  0  0  0  0  0  0  0  0  0
  1  3  1  0  0  0  0
  1  4  2  0  0  0  0
  2  3  2  0  0  0  0
  2  5  1  0  0  0  0
  3 17  1  0  0  0  0
  4  6  1  0  0  0  0
  4 18  1  0  0  0  0
  5 18  2  0  0  0  0
  5 28  1  0  0  0  0
  6 19  1  0  0  0  0
  6 22  2  0  0  0  0
  7  8  1  0  0  0  0
  7 20  1  0  0  0  0
  7 23  2  0  0  0  0
  8 21  1  0  0  0  0
  8 24  2  0  0  0  0
  9 10  1  0  0  0  0
  9 11  1  0  0  0  0
 10 12  1  0  0  0  0
 11 20  1  0  0  0  0
 12 20  1  0  0  0  0
 13 15  1  0  0  0  0
 13 19  1  0  0  0  0
 14 16  1  0  0  0  0
 14 19  1  0  0  0  0
 15 21  1  0  0  0  0
 16 21  1  0  0  0  0
 17 25  1  0  0  0  0
 17 26  1  0  0  0  0
 17 27  1  0  0  0  0
  1 29  1  0  0  0  0
  2 30  1  0  0  0  0
  9 31  1  0  0  0  0
  9 32  1  0  0  0  0
 10 33  1  0  0  0  0
 10 34  1  0  0  0  0
 11 35  1  0  0  0  0
 11 36  1  0  0  0  0
 12 37  1  0  0  0  0
 12 38  1  0  0  0  0
 13 39  1  0  0  0  0
 13 40  1  0  0  0  0
 14 41  1  0  0  0  0
 14 42  1  0  0  0  0
 15 43  1  0  0  0  0
 15 44  1  0  0  0  0
 16 45  1  0  0  0  0
 16 46  1  0  0  0  0
M  END
> <id>
EN300-26601978

> <smiles>
FC(F)(F)C=1C=C(Cl)N=C(C1)C(=O)N2CCN(CC2)C(=O)C(=O)N3CCCC3

> <IUPAC Name>
1-{4-[6-chloro-4-(trifluoromethyl)pyridine-2-carbonyl]piperazin-1-yl}-2-(pyrrolidin-1-yl)ethane-1,2-dione

> <CAS>
1808694-15-6

> <URL>
https://www.enaminestore.com/catalog/EN300-26601978

> <ROCS_ShapeQuery>
_x0404_0B

> <ROCS_TanimotoCombo>
0.465 

> <ROCS_ShapeTanimoto>
0.388 

> <ROCS_ColorTanimoto>
0.077 

> <ROCS_RefTversky>
0.344 

> <ROCS_RefColorTversky>
0.081 

> <ROCS_RefTverskyCombo>
0.426 

> <ROCS_FitTversky>
1.483 

> <ROCS_FitColorTversky>
0.563 

> <ROCS_FitTverskyCombo>
2.046 

> <ROCS_ColorScore>
-5.873

> <ROCS_Overlap>
2303.682

> <ROCS_Rank>
39                  

$$$$
untitled-dbase-160046_0
  -OEChem-08222312023D

 32 35  0     0  0  0  0  0  0999 V2000
   -9.0267    5.7049   -8.8767 C   0  0  0  0  0  0  0  0  0  0  0  0
   -7.1117    6.4446  -15.6441 C   0  0  0  0  0  0  0  0  0  0  0  0
   -6.9706    5.8576  -16.9048 C   0  0  0  0  0  0  0  0  0  0  0  0
   -9.1744    4.4442   -8.2933 C   0  0  0  0  0  0  0  0  0  0  0  0
  -10.0915    4.1324  -17.4780 C   0  0  0  0  0  0  0  0  0  0  0  0
   -9.3528    5.5396  -15.4096 C   0  0  0  0  0  0  0  0  0  0  0  0
   -8.9909    3.3423  -10.4680 C   0  0  0  0  0  0  0  0  0  0  0  0
   -9.4223    3.8370  -18.6433 C   0  0  0  0  0  0  0  0  0  0  0  0
   -9.2337    4.9384  -16.6784 C   0  0  0  0  0  0  0  0  0  0  0  0
   -8.8645    5.7436  -10.2452 C   0  0  0  0  0  0  0  0  0  0  0  0
   -8.2835    6.2893  -14.9063 C   0  0  0  0  0  0  0  0  0  0  0  0
   -8.0477    5.1109  -17.3953 C   0  0  0  0  0  0  0  0  0  0  0  0
   -8.8460    4.5923  -11.0303 C   0  0  0  0  0  0  0  0  0  0  0  0
   -9.1566    3.2747   -9.0807 C   0  0  0  0  0  0  0  0  0  0  0  0
   -8.6871    6.8806  -11.1395 C   0  0  0  0  0  0  0  0  0  0  0  0
   -8.5718    6.2389  -12.4712 C   0  0  0  0  0  0  0  0  0  0  0  0
   -8.3959    6.9030  -13.6143 C   0  0  0  0  0  0  0  0  0  0  0  0
   -8.1904    4.4314  -18.5840 N   0  0  0  0  0  0  0  0  0  0  0  0
   -8.6459    8.0546  -10.8504 O   0  0  0  0  0  0  0  0  0  0  0  0
   -8.6724    4.8564  -12.3694 O   0  0  0  0  0  0  0  0  0  0  0  0
   -9.3031    2.0606   -8.4779 O   0  0  0  0  0  0  0  0  0  0  0  0
   -9.0399    6.6050   -8.2740 H   0  0  0  0  0  0  0  0  0  0  0  0
   -6.2835    7.0291  -15.2476 H   0  0  0  0  0  0  0  0  0  0  0  0
   -6.0579    5.9789  -17.4783 H   0  0  0  0  0  0  0  0  0  0  0  0
   -9.3034    4.3677   -7.2162 H   0  0  0  0  0  0  0  0  0  0  0  0
  -11.0907    3.8032  -17.2284 H   0  0  0  0  0  0  0  0  0  0  0  0
  -10.2678    5.4171  -14.8349 H   0  0  0  0  0  0  0  0  0  0  0  0
   -8.9773    2.4451  -11.0768 H   0  0  0  0  0  0  0  0  0  0  0  0
   -9.7130    3.2579  -19.5083 H   0  0  0  0  0  0  0  0  0  0  0  0
   -8.3043    7.9882  -13.5596 H   0  0  0  0  0  0  0  0  0  0  0  0
   -7.4868    4.3793  -19.3076 H   0  0  0  0  0  0  0  0  0  0  0  0
   -9.4073    2.1734   -7.5205 H   0  0  0  0  0  0  0  0  0  0  0  0
  1  4  1  0  0  0  0
  1 10  2  0  0  0  0
  2  3  1  0  0  0  0
  2 11  2  0  0  0  0
  3 12  2  0  0  0  0
  4 14  2  0  0  0  0
  5  8  2  0  0  0  0
  5  9  1  0  0  0  0
  6  9  2  0  0  0  0
  6 11  1  0  0  0  0
  7 13  2  0  0  0  0
  7 14  1  0  0  0  0
  8 18  1  0  0  0  0
  9 12  1  0  0  0  0
 10 13  1  0  0  0  0
 10 15  1  0  0  0  0
 11 17  1  0  0  0  0
 12 18  1  0  0  0  0
 13 20  1  0  0  0  0
 14 21  1  0  0  0  0
 15 16  1  0  0  0  0
 15 19  2  0  0  0  0
 16 17  2  3  0  0  0
 16 20  1  0  0  0  0
  1 22  1  0  0  0  0
  2 23  1  0  0  0  0
  3 24  1  0  0  0  0
  4 25  1  0  0  0  0
  5 26  1  0  0  0  0
  6 27  1  0  0  0  0
  7 28  1  0  0  0  0
  8 29  1  0  0  0  0
 17 30  1  0  0  0  0
 18 31  1  0  0  0  0
 21 32  1  0  0  0  0
M  END
> <id>
EN300-303087

> <smiles>
OC=1C=CC=2C(=O)C(=CC=3C=CC=4NC=CC4C3)OC2C1

> <IUPAC Name>
6-hydroxy-2-[(1H-indol-5-yl)methylidene]-2,3-dihydro-1-benzofuran-3-one

> <CAS>
1955564-23-4

> <URL>
https://www.enaminestore.com/catalog/EN300-303087

> <ROCS_ShapeQuery>
_x0404_0B

> <ROCS_TanimotoCombo>
0.463 

> <ROCS_ShapeTanimoto>
0.378 

> <ROCS_ColorTanimoto>
0.086 

> <ROCS_RefTversky>
0.328 

> <ROCS_RefColorTversky>
0.092 

> <ROCS_RefTverskyCombo>
0.420 

> <ROCS_FitTversky>
1.684 

> <ROCS_FitColorTversky>
0.540 

> <ROCS_FitTverskyCombo>
2.224 

> <ROCS_ColorScore>
-6.672

> <ROCS_Overlap>
2186.442

> <ROCS_Rank>
40                  

$$$$
untitled-dbase-4584_1283
  -OEChem-08222312023D

 46 47  0     1  0  0  0  0  0999 V2000
   -9.2231    4.3809  -15.8622 C   0  0  0  0  0  0  0  0  0  0  0  0
   -9.6522    4.5430  -17.1795 C   0  0  0  0  0  0  0  0  0  0  0  0
   -7.0718    5.3111  -16.4485 C   0  0  0  0  0  0  0  0  0  0  0  0
   -7.9329    4.7650  -15.4967 C   0  0  0  0  0  0  0  0  0  0  0  0
   -7.5008    5.4732  -17.7658 C   0  0  0  0  0  0  0  0  0  0  0  0
   -8.7910    5.0891  -18.1313 C   0  0  0  0  0  0  0  0  0  0  0  0
   -8.8460    4.5810   -9.9299 C   0  0  0  0  0  0  0  0  0  0  0  0
   -7.7133    5.8493  -13.2017 C   0  0  0  0  0  0  0  0  0  0  0  0
   -8.8137    5.6641  -12.1607 C   0  0  0  0  0  0  0  0  0  0  0  0
   -7.9647    3.3230  -11.9110 C   0  0  0  0  0  0  0  0  0  0  0  0
   -7.4647    4.5882  -14.0580 C   0  0  1  0  0  0  0  0  0  0  0  0
   -8.0843    3.3206  -13.4329 C   0  0  1  0  0  0  0  0  0  0  0  0
  -10.6828    4.2420   -7.7629 C   0  0  0  0  0  0  0  0  0  0  0  0
   -9.8171    1.8873   -7.6395 C   0  0  0  0  0  0  0  0  0  0  0  0
   -8.2604    3.8152   -7.2297 C   0  0  0  0  0  0  0  0  0  0  0  0
   -6.5776    6.0563  -18.7817 C   0  0  0  0  0  0  0  0  0  0  0  0
   -9.4816    3.3304   -8.0097 C   0  0  0  0  0  0  0  0  0  0  0  0
   -8.5504    4.5149  -11.2954 N   0  0  0  0  0  0  0  0  0  0  0  0
   -8.8172    5.6128   -9.2620 O   0  0  0  0  0  0  0  0  0  0  0  0
   -7.4308    2.1597  -13.9458 O   0  0  0  0  0  0  0  0  0  0  0  0
   -9.1697    3.3560   -9.4072 O   0  0  0  0  0  0  0  0  0  0  0  0
   -9.2118    5.2396  -19.3950 F   0  0  0  0  0  0  0  0  0  0  0  0
   -5.3495    6.3838  -18.2814 F   0  0  0  0  0  0  0  0  0  0  0  0
   -6.3229    5.2212  -19.8321 F   0  0  0  0  0  0  0  0  0  0  0  0
   -7.0649    7.2043  -19.3364 F   0  0  0  0  0  0  0  0  0  0  0  0
   -9.9013    3.9555  -15.1273 H   0  0  0  0  0  0  0  0  0  0  0  0
  -10.6572    4.2459  -17.4643 H   0  0  0  0  0  0  0  0  0  0  0  0
   -6.0657    5.6097  -16.1633 H   0  0  0  0  0  0  0  0  0  0  0  0
   -7.9774    6.7021  -13.8543 H   0  0  0  0  0  0  0  0  0  0  0  0
   -6.7778    6.1453  -12.6946 H   0  0  0  0  0  0  0  0  0  0  0  0
   -8.8821    6.5504  -11.5134 H   0  0  0  0  0  0  0  0  0  0  0  0
   -9.7849    5.5576  -12.6619 H   0  0  0  0  0  0  0  0  0  0  0  0
   -8.4059    2.3982  -11.5053 H   0  0  0  0  0  0  0  0  0  0  0  0
   -6.9032    3.2882  -11.6070 H   0  0  0  0  0  0  0  0  0  0  0  0
   -6.3522    4.4191  -14.1365 H   0  0  0  0  0  0  0  0  0  0  0  0
   -9.1556    3.2445  -13.7125 H   0  0  0  0  0  0  0  0  0  0  0  0
  -10.4460    5.2788   -8.0274 H   0  0  0  0  0  0  0  0  0  0  0  0
  -11.5554    3.9256   -8.3436 H   0  0  0  0  0  0  0  0  0  0  0  0
  -10.9572    4.2486   -6.7018 H   0  0  0  0  0  0  0  0  0  0  0  0
   -8.9581    1.2297   -7.8150 H   0  0  0  0  0  0  0  0  0  0  0  0
  -10.6322    1.5036   -8.2638 H   0  0  0  0  0  0  0  0  0  0  0  0
  -10.1132    1.7980   -6.5893 H   0  0  0  0  0  0  0  0  0  0  0  0
   -7.3986    3.1615   -7.4066 H   0  0  0  0  0  0  0  0  0  0  0  0
   -7.9825    4.8366   -7.5095 H   0  0  0  0  0  0  0  0  0  0  0  0
   -8.4517    3.7895   -6.1508 H   0  0  0  0  0  0  0  0  0  0  0  0
   -7.5280    2.1940  -14.9093 H   0  0  0  0  0  0  0  0  0  0  0  0
  1  2  1  0  0  0  0
  1  4  2  0  0  0  0
  2  6  2  0  0  0  0
  3  4  1  0  0  0  0
  3  5  2  0  0  0  0
  4 11  1  0  0  0  0
  5  6  1  0  0  0  0
  5 16  1  0  0  0  0
  6 22  1  0  0  0  0
  7 18  1  0  0  0  0
  7 19  2  0  0  0  0
  7 21  1  0  0  0  0
  8  9  1  0  0  0  0
  8 11  1  0  0  0  0
  9 18  1  0  0  0  0
 10 12  1  0  0  0  0
 10 18  1  0  0  0  0
 11 12  1  0  0  0  0
 12 20  1  0  0  0  0
 13 17  1  0  0  0  0
 14 17  1  0  0  0  0
 15 17  1  0  0  0  0
 16 23  1  0  0  0  0
 16 24  1  0  0  0  0
 16 25  1  0  0  0  0
 17 21  1  0  0  0  0
  1 26  1  0  0  0  0
  2 27  1  0  0  0  0
  3 28  1  0  0  0  0
  8 29  1  0  0  0  0
  8 30  1  0  0  0  0
  9 31  1  0  0  0  0
  9 32  1  0  0  0  0
 10 33  1  0  0  0  0
 10 34  1  0  0  0  0
 11 35  1  0  0  0  0
 12 36  1  0  0  0  0
 13 37  1  0  0  0  0
 13 38  1  0  0  0  0
 13 39  1  0  0  0  0
 14 40  1  0  0  0  0
 14 41  1  0  0  0  0
 14 42  1  0  0  0  0
 15 43  1  0  0  0  0
 15 44  1  0  0  0  0
 15 45  1  0  0  0  0
 20 46  1  0  0  0  0
M  END
> <id>
EN300-94543

> <smiles>
CC(C)(C)OC(=O)N1CCC(C(O)C1)C=2C=CC(F)=C(C2)C(F)(F)F

> <MDLNUMBER>
MFCD20502188

> <IUPAC Name>
tert-butyl 4-[4-fluoro-3-(trifluoromethyl)phenyl]-3-hydroxypiperidine-1-carboxylate

> <CAS>
1354951-59-9

> <URL>
https://www.enaminestore.com/catalog/EN300-94543

> <ROCS_ShapeQuery>
_x0404_0B

> <ROCS_TanimotoCombo>
0.463 

> <ROCS_ShapeTanimoto>
0.373 

> <ROCS_ColorTanimoto>
0.090 

> <ROCS_RefTversky>
0.329 

> <ROCS_RefColorTversky>
0.094 

> <ROCS_RefTverskyCombo>
0.423 

> <ROCS_FitTversky>
1.557 

> <ROCS_FitColorTversky>
0.714 

> <ROCS_FitTverskyCombo>
2.271 

> <ROCS_ColorScore>
-6.767

> <ROCS_Overlap>
2197.412

> <ROCS_Rank>
41                  

$$$$
untitled-dbase-106288_15
  -OEChem-08222312023D

 47 51  0     0  0  0  0  0  0999 V2000
   -8.7749    7.3729  -14.0983 C   0  0  0  0  0  0  0  0  0  0  0  0
   -8.8067    7.4843  -12.7047 C   0  0  0  0  0  0  0  0  0  0  0  0
   -8.8144    4.9262  -13.9925 C   0  0  0  0  0  0  0  0  0  0  0  0
   -8.7787    6.1119  -14.7331 C   0  0  0  0  0  0  0  0  0  0  0  0
   -8.8420    6.3142  -11.9833 C   0  0  0  0  0  0  0  0  0  0  0  0
   -8.8458    5.0438  -12.6228 C   0  0  0  0  0  0  0  0  0  0  0  0
   -9.0781    2.4896   -5.3386 C   0  0  0  0  0  0  0  0  0  0  0  0
   -9.0927    1.1668   -5.5212 C   0  0  0  0  0  0  0  0  0  0  0  0
   -8.9403    4.1151   -9.1957 C   0  0  0  0  0  0  0  0  0  0  0  0
   -8.9670    2.6600   -8.9956 C   0  0  0  0  0  0  0  0  0  0  0  0
   -9.0098    2.2155   -7.7325 C   0  0  0  0  0  0  0  0  0  0  0  0
   -8.9034    4.7195  -10.3968 C   0  0  0  0  0  0  0  0  0  0  0  0
   -9.0270    3.1913   -6.6334 C   0  0  0  0  0  0  0  0  0  0  0  0
   -8.9532    5.0515   -8.0025 C   0  0  0  0  0  0  0  0  0  0  0  0
   -9.8038    5.4163  -16.9073 C   0  0  0  0  0  0  0  0  0  0  0  0
   -7.4848    6.2200  -16.8486 C   0  0  0  0  0  0  0  0  0  0  0  0
   -9.3165    4.0535  -17.4067 C   0  0  0  0  0  0  0  0  0  0  0  0
   -7.0223    4.8499  -17.3647 C   0  0  0  0  0  0  0  0  0  0  0  0
   -7.6095    2.9060  -18.6678 C   0  0  0  0  0  0  0  0  0  0  0  0
   -9.0016    4.4720   -6.7519 N   0  0  0  0  0  0  0  0  0  0  0  0
   -8.8777    6.0976  -10.6012 N   0  0  0  0  0  0  0  0  0  0  0  0
   -8.8838    4.0629  -11.6257 N   0  0  0  0  0  0  0  0  0  0  0  0
   -8.7453    6.0504  -16.1205 N   0  0  0  0  0  0  0  0  0  0  0  0
   -8.0686    4.2036  -18.1747 N   0  0  0  0  0  0  0  0  0  0  0  0
   -8.9478    1.8118  -10.0742 N   0  0  0  0  0  0  0  0  0  0  0  0
   -8.9224    6.2706   -8.1494 O   0  0  0  0  0  0  0  0  0  0  0  0
   -9.0510    0.5963   -7.1563 S   0  0  0  0  0  0  0  0  0  0  0  0
   -8.7458    8.2807  -14.6976 H   0  0  0  0  0  0  0  0  0  0  0  0
   -8.8033    8.4546  -12.2224 H   0  0  0  0  0  0  0  0  0  0  0  0
   -8.8162    3.9550  -14.4751 H   0  0  0  0  0  0  0  0  0  0  0  0
   -9.0994    2.9987   -4.3880 H   0  0  0  0  0  0  0  0  0  0  0  0
   -9.1289    0.4659   -4.6971 H   0  0  0  0  0  0  0  0  0  0  0  0
  -10.0619    6.0367  -17.7685 H   0  0  0  0  0  0  0  0  0  0  0  0
  -10.7003    5.2892  -16.2946 H   0  0  0  0  0  0  0  0  0  0  0  0
   -6.7255    6.6436  -16.1898 H   0  0  0  0  0  0  0  0  0  0  0  0
   -7.6220    6.8882  -17.6986 H   0  0  0  0  0  0  0  0  0  0  0  0
   -9.1397    3.4153  -16.5362 H   0  0  0  0  0  0  0  0  0  0  0  0
  -10.0965    3.5794  -18.0115 H   0  0  0  0  0  0  0  0  0  0  0  0
   -6.0938    4.9670  -17.9398 H   0  0  0  0  0  0  0  0  0  0  0  0
   -6.7871    4.2231  -16.4959 H   0  0  0  0  0  0  0  0  0  0  0  0
   -6.6781    3.0385  -19.2378 H   0  0  0  0  0  0  0  0  0  0  0  0
   -7.4257    2.2344  -17.8163 H   0  0  0  0  0  0  0  0  0  0  0  0
   -8.3795    2.4686  -19.3203 H   0  0  0  0  0  0  0  0  0  0  0  0
   -8.8855    6.7894   -9.8723 H   0  0  0  0  0  0  0  0  0  0  0  0
   -8.8967    3.0653  -11.7472 H   0  0  0  0  0  0  0  0  0  0  0  0
   -8.9668    0.8340   -9.9026 H   0  0  0  0  0  0  0  0  0  0  0  0
   -8.9155    2.2094  -10.9836 H   0  0  0  0  0  0  0  0  0  0  0  0
  1  2  1  0  0  0  0
  1  4  2  0  0  0  0
  2  5  2  0  0  0  0
  3  4  1  0  0  0  0
  3  6  2  0  0  0  0
  4 23  1  0  0  0  0
  5  6  1  0  0  0  0
  5 21  1  0  0  0  0
  6 22  1  0  0  0  0
  7  8  2  0  0  0  0
  7 13  1  0  0  0  0
  8 27  1  0  0  0  0
  9 10  1  0  0  0  0
  9 12  2  3  0  0  0
  9 14  1  0  0  0  0
 10 11  2  0  0  0  0
 10 25  1  0  0  0  0
 11 13  1  0  0  0  0
 11 27  1  0  0  0  0
 12 21  1  0  0  0  0
 12 22  1  0  0  0  0
 13 20  2  0  0  0  0
 14 20  1  0  0  0  0
 14 26  2  0  0  0  0
 15 17  1  0  0  0  0
 15 23  1  0  0  0  0
 16 18  1  0  0  0  0
 16 23  1  0  0  0  0
 17 24  1  0  0  0  0
 18 24  1  0  0  0  0
 19 24  1  0  0  0  0
  1 28  1  0  0  0  0
  2 29  1  0  0  0  0
  3 30  1  0  0  0  0
  7 31  1  0  0  0  0
  8 32  1  0  0  0  0
 15 33  1  0  0  0  0
 15 34  1  0  0  0  0
 16 35  1  0  0  0  0
 16 36  1  0  0  0  0
 17 37  1  0  0  0  0
 17 38  1  0  0  0  0
 18 39  1  0  0  0  0
 18 40  1  0  0  0  0
 19 41  1  0  0  0  0
 19 42  1  0  0  0  0
 19 43  1  0  0  0  0
 21 44  1  0  0  0  0
 22 45  1  0  0  0  0
 25 46  1  0  0  0  0
 25 47  1  0  0  0  0
M  END
> <id>
EN300-717312

> <smiles>
CN1CCN(CC1)C=2C=CC=3NC(=C4C(=C5SC=CC5=NC4=O)N)NC3C2

> <IUPAC Name>
7-amino-6-[5-(4-methylpiperazin-1-yl)-2,3-dihydro-1H-1,3-benzodiazol-2-ylidene]-5H,6H-thieno[3,2-b]pyridin-5-one

> <CAS>
2416245-85-5

> <Purity>
95

> <URL>
https://www.enaminestore.com/catalog/EN300-717312

> <ROCS_ShapeQuery>
_x0404_0B

> <ROCS_TanimotoCombo>
0.463 

> <ROCS_ShapeTanimoto>
0.390 

> <ROCS_ColorTanimoto>
0.072 

> <ROCS_RefTversky>
0.346 

> <ROCS_RefColorTversky>
0.083 

> <ROCS_RefTverskyCombo>
0.428 

> <ROCS_FitTversky>
1.494 

> <ROCS_FitColorTversky>
0.370 

> <ROCS_FitTverskyCombo>
1.864 

> <ROCS_ColorScore>
-5.990

> <ROCS_Overlap>
2312.244

> <ROCS_Rank>
42                  

$$$$
untitled-dbase-87185_309
  -OEChem-08222312023D

 39 41  0     0  0  0  0  0  0999 V2000
   -9.3772    2.9725   -7.1615 C   0  0  0  0  0  0  0  0  0  0  0  0
   -9.1119    2.0554   -8.2003 C   0  0  0  0  0  0  0  0  0  0  0  0
   -9.3488    4.3511   -7.3921 C   0  0  0  0  0  0  0  0  0  0  0  0
   -8.8125    2.4969   -9.4925 C   0  0  0  0  0  0  0  0  0  0  0  0
   -9.0547    4.7657   -8.6739 C   0  0  0  0  0  0  0  0  0  0  0  0
   -8.7926    3.8601   -9.6998 C   0  0  0  0  0  0  0  0  0  0  0  0
   -8.9404    6.1201   -9.2243 C   0  0  0  0  0  0  0  0  0  0  0  0
   -8.5075    4.6249  -10.9181 C   0  0  0  0  0  0  0  0  0  0  0  0
   -8.8903    7.4891  -13.6645 C   0  0  0  0  0  0  0  0  0  0  0  0
   -9.4603    6.8767  -12.4462 C   0  0  0  0  0  0  0  0  0  0  0  0
   -9.1938    4.7005  -16.2410 C   0  0  0  0  0  0  0  0  0  0  0  0
   -7.2056    6.2438  -16.6712 C   0  0  0  0  0  0  0  0  0  0  0  0
   -9.1049    5.2428  -14.8183 C   0  0  0  0  0  0  0  0  0  0  0  0
   -8.1629    7.2271  -16.0057 C   0  0  0  0  0  0  0  0  0  0  0  0
   -7.8793    4.9013  -17.0102 C   0  0  0  0  0  0  0  0  0  0  0  0
   -8.1197    4.7622  -18.5136 C   0  0  0  0  0  0  0  0  0  0  0  0
   -8.6639    5.9219  -10.5408 N   0  0  0  0  0  0  0  0  0  0  0  0
   -8.7339    6.6650  -14.7782 N   0  0  0  0  0  0  0  0  0  0  0  0
   -9.0905    7.1454   -8.5894 O   0  0  0  0  0  0  0  0  0  0  0  0
   -8.2199    4.1393  -11.9943 O   0  0  0  0  0  0  0  0  0  0  0  0
   -8.5823    8.6808  -13.6226 O   0  0  0  0  0  0  0  0  0  0  0  0
  -10.5649    6.3771  -12.4152 O   0  0  0  0  0  0  0  0  0  0  0  0
   -8.5470    6.9918  -11.4554 O   0  0  0  0  0  0  0  0  0  0  0  0
   -8.6624    3.5651  -18.7843 F   0  0  0  0  0  0  0  0  0  0  0  0
   -8.9548    5.7232  -18.9373 F   0  0  0  0  0  0  0  0  0  0  0  0
   -6.9588    4.8723  -19.1775 F   0  0  0  0  0  0  0  0  0  0  0  0
   -9.6057    2.5987   -6.1666 H   0  0  0  0  0  0  0  0  0  0  0  0
   -9.1402    0.9894   -7.9897 H   0  0  0  0  0  0  0  0  0  0  0  0
   -9.5501    5.0544   -6.5928 H   0  0  0  0  0  0  0  0  0  0  0  0
   -8.6062    1.7919  -10.2889 H   0  0  0  0  0  0  0  0  0  0  0  0
   -9.4439    3.6303  -16.2058 H   0  0  0  0  0  0  0  0  0  0  0  0
  -10.0217    5.1972  -16.7697 H   0  0  0  0  0  0  0  0  0  0  0  0
   -6.7981    6.6986  -17.5879 H   0  0  0  0  0  0  0  0  0  0  0  0
   -6.3471    6.0669  -16.0061 H   0  0  0  0  0  0  0  0  0  0  0  0
  -10.0631    5.0892  -14.3012 H   0  0  0  0  0  0  0  0  0  0  0  0
   -8.3430    4.6943  -14.2433 H   0  0  0  0  0  0  0  0  0  0  0  0
   -7.6313    8.1452  -15.7235 H   0  0  0  0  0  0  0  0  0  0  0  0
   -8.9447    7.5126  -16.7161 H   0  0  0  0  0  0  0  0  0  0  0  0
   -7.1843    4.0838  -16.7175 H   0  0  0  0  0  0  0  0  0  0  0  0
  1  2  2  0  0  0  0
  1  3  1  0  0  0  0
  2  4  1  0  0  0  0
  3  5  2  0  0  0  0
  4  6  2  0  0  0  0
  5  6  1  0  0  0  0
  5  7  1  0  0  0  0
  6  8  1  0  0  0  0
  7 17  1  0  0  0  0
  7 19  2  0  0  0  0
  8 17  1  0  0  0  0
  8 20  2  0  0  0  0
  9 10  1  0  0  0  0
  9 18  1  0  0  0  0
  9 21  2  0  0  0  0
 10 22  2  0  0  0  0
 10 23  1  0  0  0  0
 11 13  1  0  0  0  0
 11 15  1  0  0  0  0
 12 14  1  0  0  0  0
 12 15  1  0  0  0  0
 13 18  1  0  0  0  0
 14 18  1  0  0  0  0
 15 16  1  0  0  0  0
 16 24  1  0  0  0  0
 16 25  1  0  0  0  0
 16 26  1  0  0  0  0
 17 23  1  0  0  0  0
  1 27  1  0  0  0  0
  2 28  1  0  0  0  0
  3 29  1  0  0  0  0
  4 30  1  0  0  0  0
 11 31  1  0  0  0  0
 11 32  1  0  0  0  0
 12 33  1  0  0  0  0
 12 34  1  0  0  0  0
 13 35  1  0  0  0  0
 13 36  1  0  0  0  0
 14 37  1  0  0  0  0
 14 38  1  0  0  0  0
 15 39  1  0  0  0  0
M  END
> <id>
EN300-6519806

> <smiles>
FC(F)(F)C1CCN(CC1)C(=O)C(=O)ON2C(=O)C=3C=CC=CC3C2=O

> <IUPAC Name>
1,3-dioxo-2,3-dihydro-1H-isoindol-2-yl 2-oxo-2-[4-(trifluoromethyl)piperidin-1-yl]acetate

> <CAS>
2248310-15-6

> <URL>
https://www.enaminestore.com/catalog/EN300-6519806

> <ROCS_ShapeQuery>
_x0404_0B

> <ROCS_TanimotoCombo>
0.462 

> <ROCS_ShapeTanimoto>
0.411 

> <ROCS_ColorTanimoto>
0.051 

> <ROCS_RefTversky>
0.357 

> <ROCS_RefColorTversky>
0.056 

> <ROCS_RefTverskyCombo>
0.412 

> <ROCS_FitTversky>
1.591 

> <ROCS_FitColorTversky>
0.384 

> <ROCS_FitTverskyCombo>
1.975 

> <ROCS_ColorScore>
-4.016

> <ROCS_Overlap>
2385.656

> <ROCS_Rank>
43                  

$$$$
untitled-dbase-170014_0
  -OEChem-08222312023D

 39 42  0     1  0  0  0  0  0999 V2000
   -9.0028    6.5543  -11.1484 C   0  0  0  0  0  0  0  0  0  0  0  0
   -8.4325    3.7592  -11.5113 C   0  0  0  0  0  0  0  0  0  0  0  0
   -8.8367    5.9827  -12.3963 C   0  0  0  0  0  0  0  0  0  0  0  0
   -8.8900    5.6869  -10.0729 C   0  0  0  0  0  0  0  0  0  0  0  0
   -8.5572    4.6202  -12.5883 C   0  0  0  0  0  0  0  0  0  0  0  0
   -8.6136    4.3097  -10.2471 C   0  0  0  0  0  0  0  0  0  0  0  0
   -8.8971    6.6286  -13.7128 C   0  0  0  0  0  0  0  0  0  0  0  0
   -8.4075    4.7885  -18.7907 C   0  0  0  0  0  0  0  0  0  0  0  0
   -9.7446    4.9975  -16.6778 C   0  0  0  0  0  0  0  0  0  0  0  0
   -8.9785    6.0301   -8.6169 C   0  0  0  0  0  0  0  0  0  0  0  0
   -8.4229    4.3207  -14.0435 C   0  0  0  0  0  0  0  0  0  0  0  0
   -7.2878    5.5769  -18.1542 C   0  0  0  0  0  0  0  0  0  0  0  0
   -9.2235    4.6442   -8.0035 C   0  0  0  0  0  0  0  0  0  0  0  0
   -7.2692    5.3978  -16.6471 C   0  0  0  0  0  0  0  0  0  0  0  0
   -8.4877    3.6348   -8.9082 C   0  0  1  0  0  0  0  0  0  0  0  0
   -8.6147    5.8115  -16.0730 C   0  0  2  0  0  0  0  0  0  0  0  0
   -9.5291    4.5856  -17.9925 N   0  0  0  0  0  0  0  0  0  0  0  0
   -8.6517    5.6281  -14.6465 N   0  0  0  0  0  0  0  0  0  0  0  0
   -9.1009    2.3185   -8.8280 N   0  0  0  0  0  0  0  0  0  0  0  0
   -9.1227    7.8130  -13.8808 O   0  0  0  0  0  0  0  0  0  0  0  0
   -8.3383    4.4028  -19.9575 O   0  0  0  0  0  0  0  0  0  0  0  0
  -10.8020    4.7813  -16.0859 O   0  0  0  0  0  0  0  0  0  0  0  0
   -9.2046    7.6094  -11.0156 H   0  0  0  0  0  0  0  0  0  0  0  0
   -8.1992    2.7104  -11.6497 H   0  0  0  0  0  0  0  0  0  0  0  0
   -8.0318    6.4574   -8.2711 H   0  0  0  0  0  0  0  0  0  0  0  0
   -9.8027    6.7145   -8.3976 H   0  0  0  0  0  0  0  0  0  0  0  0
   -7.4171    3.9769  -14.3002 H   0  0  0  0  0  0  0  0  0  0  0  0
   -9.1904    3.6238  -14.3915 H   0  0  0  0  0  0  0  0  0  0  0  0
   -6.3373    5.2341  -18.5771 H   0  0  0  0  0  0  0  0  0  0  0  0
   -7.4201    6.6315  -18.4209 H   0  0  0  0  0  0  0  0  0  0  0  0
   -8.8925    4.5879   -6.9610 H   0  0  0  0  0  0  0  0  0  0  0  0
  -10.3057    4.4470   -8.0069 H   0  0  0  0  0  0  0  0  0  0  0  0
   -7.0577    4.3471  -16.4083 H   0  0  0  0  0  0  0  0  0  0  0  0
   -6.4648    6.0043  -16.2150 H   0  0  0  0  0  0  0  0  0  0  0  0
   -7.4334    3.5768   -8.6349 H   0  0  0  0  0  0  0  0  0  0  0  0
   -8.8135    6.8706  -16.2755 H   0  0  0  0  0  0  0  0  0  0  0  0
  -10.2911    4.0697  -18.4243 H   0  0  0  0  0  0  0  0  0  0  0  0
   -8.6267    1.7102   -9.4554 H   0  0  0  0  0  0  0  0  0  0  0  0
   -9.0168    1.9877   -7.8942 H   0  0  0  0  0  0  0  0  0  0  0  0
  1  3  1  0  0  0  0
  1  4  2  0  0  0  0
  2  5  1  0  0  0  0
  2  6  2  0  0  0  0
  3  5  2  0  0  0  0
  3  7  1  0  0  0  0
  4  6  1  0  0  0  0
  4 10  1  0  0  0  0
  5 11  1  0  0  0  0
  6 15  1  0  0  0  0
  7 18  1  0  0  0  0
  7 20  2  0  0  0  0
  8 12  1  0  0  0  0
  8 17  1  0  0  0  0
  8 21  2  0  0  0  0
  9 16  1  0  0  0  0
  9 17  1  0  0  0  0
  9 22  2  0  0  0  0
 10 13  1  0  0  0  0
 11 18  1  0  0  0  0
 12 14  1  0  0  0  0
 13 15  1  0  0  0  0
 14 16  1  0  0  0  0
 15 19  1  0  0  0  0
 16 18  1  0  0  0  0
  1 23  1  0  0  0  0
  2 24  1  0  0  0  0
 10 25  1  0  0  0  0
 10 26  1  0  0  0  0
 11 27  1  0  0  0  0
 11 28  1  0  0  0  0
 12 29  1  0  0  0  0
 12 30  1  0  0  0  0
 13 31  1  0  0  0  0
 13 32  1  0  0  0  0
 14 33  1  0  0  0  0
 14 34  1  0  0  0  0
 15 35  1  0  0  0  0
 16 36  1  0  0  0  0
 17 37  1  0  0  0  0
 19 38  1  0  0  0  0
 19 39  1  0  0  0  0
M  END
> <id>
EN300-39872087

> <smiles>
NC1CCC=2C=C3C(=O)N(CC3=CC12)C4CCC(=O)NC4=O

> <IUPAC Name>
3-{5-amino-1-oxo-1H,2H,3H,5H,6H,7H-cyclopenta[f]isoindol-2-yl}piperidine-2,6-dione

> <URL>
https://www.enaminestore.com/catalog/EN300-39872087

> <ROCS_ShapeQuery>
_x0404_0B

> <ROCS_TanimotoCombo>
0.462 

> <ROCS_ShapeTanimoto>
0.382 

> <ROCS_ColorTanimoto>
0.080 

> <ROCS_RefTversky>
0.331 

> <ROCS_RefColorTversky>
0.088 

> <ROCS_RefTverskyCombo>
0.419 

> <ROCS_FitTversky>
1.675 

> <ROCS_FitColorTversky>
0.477 

> <ROCS_FitTverskyCombo>
2.152 

> <ROCS_ColorScore>
-6.347

> <ROCS_Overlap>
2211.577

> <ROCS_Rank>
44                  

$$$$
untitled-dbase-80044_5
  -OEChem-08222312023D

 45 49  0     0  0  0  0  0  0999 V2000
   -9.5668    8.4889  -10.8646 C   0  0  0  0  0  0  0  0  0  0  0  0
   -9.5575    7.8151   -9.6468 C   0  0  0  0  0  0  0  0  0  0  0  0
   -7.5667    4.2483  -17.8766 C   0  0  0  0  0  0  0  0  0  0  0  0
   -7.9027    5.5998  -17.9244 C   0  0  0  0  0  0  0  0  0  0  0  0
   -9.2401    7.8096  -12.0369 C   0  0  0  0  0  0  0  0  0  0  0  0
   -9.2218    6.4606   -9.5971 C   0  0  0  0  0  0  0  0  0  0  0  0
   -7.5575    3.5745  -16.6563 C   0  0  0  0  0  0  0  0  0  0  0  0
   -8.2303    6.2811  -16.7509 C   0  0  0  0  0  0  0  0  0  0  0  0
   -8.9030    6.4503  -11.9881 C   0  0  0  0  0  0  0  0  0  0  0  0
   -8.8929    5.7739  -10.7725 C   0  0  0  0  0  0  0  0  0  0  0  0
   -7.8867    4.2627  -15.4839 C   0  0  0  0  0  0  0  0  0  0  0  0
   -8.2256    5.6188  -15.5182 C   0  0  0  0  0  0  0  0  0  0  0  0
   -8.5555    5.7204  -13.2191 C   0  0  0  0  0  0  0  0  0  0  0  0
   -8.5279    4.3376  -10.7865 C   0  0  0  0  0  0  0  0  0  0  0  0
   -7.8837    3.5693  -14.1793 C   0  0  0  0  0  0  0  0  0  0  0  0
   -7.6200    4.0443   -8.5376 C   0  0  0  0  0  0  0  0  0  0  0  0
   -9.3559    2.4702   -9.4469 C   0  0  0  0  0  0  0  0  0  0  0  0
   -8.4517    4.1522   -7.2629 C   0  0  0  0  0  0  0  0  0  0  0  0
  -10.1248    2.6361   -8.1394 C   0  0  0  0  0  0  0  0  0  0  0  0
   -9.9528    3.0083   -5.7651 C   0  0  0  0  0  0  0  0  0  0  0  0
   -8.5606    6.3376  -14.3611 N   0  0  0  0  0  0  0  0  0  0  0  0
   -8.2244    3.7187  -11.8944 N   0  0  0  0  0  0  0  0  0  0  0  0
   -8.2315    4.3731  -13.0902 N   0  0  0  0  0  0  0  0  0  0  0  0
   -8.5067    3.6574   -9.6491 N   0  0  0  0  0  0  0  0  0  0  0  0
   -9.2094    2.9142   -7.0216 N   0  0  0  0  0  0  0  0  0  0  0  0
   -7.5907    2.3786  -14.1186 O   0  0  0  0  0  0  0  0  0  0  0  0
   -9.8289    9.5422  -10.9016 H   0  0  0  0  0  0  0  0  0  0  0  0
   -9.8119    8.3438   -8.7326 H   0  0  0  0  0  0  0  0  0  0  0  0
   -7.3119    3.7195  -18.7904 H   0  0  0  0  0  0  0  0  0  0  0  0
   -7.9100    6.1241  -18.8756 H   0  0  0  0  0  0  0  0  0  0  0  0
   -9.2559    8.3583  -12.9747 H   0  0  0  0  0  0  0  0  0  0  0  0
   -9.2278    5.9763   -8.6263 H   0  0  0  0  0  0  0  0  0  0  0  0
   -7.2929    2.5211  -16.6388 H   0  0  0  0  0  0  0  0  0  0  0  0
   -8.4900    7.3356  -16.8048 H   0  0  0  0  0  0  0  0  0  0  0  0
   -7.1235    5.0024   -8.7344 H   0  0  0  0  0  0  0  0  0  0  0  0
   -6.8376    3.2820   -8.4326 H   0  0  0  0  0  0  0  0  0  0  0  0
   -8.7129    1.5815   -9.4140 H   0  0  0  0  0  0  0  0  0  0  0  0
  -10.0631    2.3366  -10.2746 H   0  0  0  0  0  0  0  0  0  0  0  0
   -7.7676    4.3358   -6.4253 H   0  0  0  0  0  0  0  0  0  0  0  0
   -9.1241    5.0180   -7.3290 H   0  0  0  0  0  0  0  0  0  0  0  0
  -10.8712    3.4350   -8.2445 H   0  0  0  0  0  0  0  0  0  0  0  0
  -10.6720    1.7053   -7.9461 H   0  0  0  0  0  0  0  0  0  0  0  0
  -10.5132    2.0764   -5.5994 H   0  0  0  0  0  0  0  0  0  0  0  0
   -9.2496    3.1658   -4.9340 H   0  0  0  0  0  0  0  0  0  0  0  0
  -10.6546    3.8537   -5.8168 H   0  0  0  0  0  0  0  0  0  0  0  0
  1  2  2  0  0  0  0
  1  5  1  0  0  0  0
  2  6  1  0  0  0  0
  3  4  2  0  0  0  0
  3  7  1  0  0  0  0
  4  8  1  0  0  0  0
  5  9  2  0  0  0  0
  6 10  2  0  0  0  0
  7 11  2  0  0  0  0
  8 12  2  0  0  0  0
  9 10  1  0  0  0  0
  9 13  1  0  0  0  0
 10 14  1  0  0  0  0
 11 12  1  0  0  0  0
 11 15  1  0  0  0  0
 12 21  1  0  0  0  0
 13 21  2  0  0  0  0
 13 23  1  0  0  0  0
 14 22  2  0  0  0  0
 14 24  1  0  0  0  0
 15 23  1  0  0  0  0
 15 26  2  0  0  0  0
 16 18  1  0  0  0  0
 16 24  1  0  0  0  0
 17 19  1  0  0  0  0
 17 24  1  0  0  0  0
 18 25  1  0  0  0  0
 19 25  1  0  0  0  0
 20 25  1  0  0  0  0
 22 23  1  0  0  0  0
  1 27  1  0  0  0  0
  2 28  1  0  0  0  0
  3 29  1  0  0  0  0
  4 30  1  0  0  0  0
  5 31  1  0  0  0  0
  6 32  1  0  0  0  0
  7 33  1  0  0  0  0
  8 34  1  0  0  0  0
 16 35  1  0  0  0  0
 16 36  1  0  0  0  0
 17 37  1  0  0  0  0
 17 38  1  0  0  0  0
 18 39  1  0  0  0  0
 18 40  1  0  0  0  0
 19 41  1  0  0  0  0
 19 42  1  0  0  0  0
 20 43  1  0  0  0  0
 20 44  1  0  0  0  0
 20 45  1  0  0  0  0
M  END
> <id>
EN300-26867129

> <smiles>
CN1CCN(CC1)C2=NN3C(=O)C=4C=CC=CC4N=C3C=5C=CC=CC25

> <IUPAC Name>
10-(4-methylpiperazin-1-yl)-13H-5,11,12-triazatetraphen-13-one

> <CAS>
380341-19-5

> <URL>
https://www.enaminestore.com/catalog/EN300-26867129

> <ROCS_ShapeQuery>
_x0404_0B

> <ROCS_TanimotoCombo>
0.462 

> <ROCS_ShapeTanimoto>
0.359 

> <ROCS_ColorTanimoto>
0.102 

> <ROCS_RefTversky>
0.325 

> <ROCS_RefColorTversky>
0.109 

> <ROCS_RefTverskyCombo>
0.433 

> <ROCS_FitTversky>
1.424 

> <ROCS_FitColorTversky>
0.637 

> <ROCS_FitTverskyCombo>
2.061 

> <ROCS_ColorScore>
-7.865

> <ROCS_Overlap>
2170.023

> <ROCS_Rank>
45                  

$$$$
untitled-dbase-82661_3
  -OEChem-08222312023D

 40 43  0     0  0  0  0  0  0999 V2000
   -8.6655    2.4983   -7.7184 C   0  0  0  0  0  0  0  0  0  0  0  0
   -9.3395    8.4024  -10.6300 C   0  0  0  0  0  0  0  0  0  0  0  0
   -7.2905    5.5818  -14.8467 C   0  0  0  0  0  0  0  0  0  0  0  0
   -7.1888    5.9843  -16.1805 C   0  0  0  0  0  0  0  0  0  0  0  0
   -9.1743    4.1352  -15.3820 C   0  0  0  0  0  0  0  0  0  0  0  0
   -8.7717    3.6748   -8.5320 C   0  0  0  0  0  0  0  0  0  0  0  0
   -8.7177    4.7531  -10.6444 C   0  0  0  0  0  0  0  0  0  0  0  0
   -8.2775    4.6625  -14.4497 C   0  0  0  0  0  0  0  0  0  0  0  0
   -8.6020    3.5892   -9.9131 C   0  0  0  0  0  0  0  0  0  0  0  0
   -8.0865    5.4487  -17.0811 C   0  0  0  0  0  0  0  0  0  0  0  0
   -9.0525    4.5489  -16.6926 C   0  0  0  0  0  0  0  0  0  0  0  0
   -8.9952    5.9491   -9.9832 C   0  0  0  0  0  0  0  0  0  0  0  0
   -9.0476    4.9203   -7.9624 C   0  0  0  0  0  0  0  0  0  0  0  0
   -9.0746    7.0524  -10.9499 C   0  0  0  0  0  0  0  0  0  0  0  0
   -8.6181    5.0988  -12.0604 C   0  0  0  0  0  0  0  0  0  0  0  0
   -8.8502    6.5414  -12.1786 C   0  0  0  0  0  0  0  0  0  0  0  0
   -8.3635    4.2652  -13.0770 C   0  0  0  0  0  0  0  0  0  0  0  0
   -9.2475    4.8920  -18.8201 C   0  0  0  0  0  0  0  0  0  0  0  0
   -8.3056    2.2780  -10.5600 C   0  0  0  0  0  0  0  0  0  0  0  0
   -8.8277    7.2664  -13.4825 C   0  0  0  0  0  0  0  0  0  0  0  0
   -8.5797    1.5464   -7.0601 N   0  0  0  0  0  0  0  0  0  0  0  0
   -9.5569    9.5113  -10.3674 N   0  0  0  0  0  0  0  0  0  0  0  0
   -9.1660    6.0778   -8.6578 N   0  0  0  0  0  0  0  0  0  0  0  0
   -9.2173    4.9944   -6.5550 N   0  0  0  0  0  0  0  0  0  0  0  0
   -8.1394    5.7207  -18.4135 O   0  0  0  0  0  0  0  0  0  0  0  0
   -9.8313    4.1451  -17.7330 O   0  0  0  0  0  0  0  0  0  0  0  0
   -6.5928    5.9910  -14.1189 H   0  0  0  0  0  0  0  0  0  0  0  0
   -6.4297    6.6933  -16.4907 H   0  0  0  0  0  0  0  0  0  0  0  0
   -9.9425    3.4246  -15.0948 H   0  0  0  0  0  0  0  0  0  0  0  0
   -8.2409    3.2105  -12.8403 H   0  0  0  0  0  0  0  0  0  0  0  0
  -10.0205    5.5312  -19.2619 H   0  0  0  0  0  0  0  0  0  0  0  0
   -8.8965    4.1862  -19.5816 H   0  0  0  0  0  0  0  0  0  0  0  0
   -9.2373    1.7709  -10.8387 H   0  0  0  0  0  0  0  0  0  0  0  0
   -7.6965    2.4087  -11.4637 H   0  0  0  0  0  0  0  0  0  0  0  0
   -7.7393    1.6212   -9.8871 H   0  0  0  0  0  0  0  0  0  0  0  0
   -7.8174    7.6174  -13.6941 H   0  0  0  0  0  0  0  0  0  0  0  0
   -9.5035    8.1214  -13.4437 H   0  0  0  0  0  0  0  0  0  0  0  0
   -9.1509    6.6000  -14.2830 H   0  0  0  0  0  0  0  0  0  0  0  0
   -9.1818    4.1533   -6.0236 H   0  0  0  0  0  0  0  0  0  0  0  0
   -9.4605    5.8697   -6.1478 H   0  0  0  0  0  0  0  0  0  0  0  0
  1  6  1  0  0  0  0
  1 21  3  0  0  0  0
  2 14  1  0  0  0  0
  2 22  3  0  0  0  0
  3  4  1  0  0  0  0
  3  8  2  0  0  0  0
  4 10  2  0  0  0  0
  5  8  1  0  0  0  0
  5 11  2  0  0  0  0
  6  9  1  0  0  0  0
  6 13  2  0  0  0  0
  7  9  2  0  0  0  0
  7 12  1  0  0  0  0
  7 15  1  0  0  0  0
  8 17  1  0  0  0  0
  9 19  1  0  0  0  0
 10 11  1  0  0  0  0
 10 25  1  0  0  0  0
 11 26  1  0  0  0  0
 12 14  1  0  0  0  0
 12 23  2  0  0  0  0
 13 23  1  0  0  0  0
 13 24  1  0  0  0  0
 14 16  2  0  0  0  0
 15 16  1  0  0  0  0
 15 17  2  3  0  0  0
 16 20  1  0  0  0  0
 18 25  1  0  0  0  0
 18 26  1  0  0  0  0
  3 27  1  0  0  0  0
  4 28  1  0  0  0  0
  5 29  1  0  0  0  0
 17 30  1  0  0  0  0
 18 31  1  0  0  0  0
 18 32  1  0  0  0  0
 19 33  1  0  0  0  0
 19 34  1  0  0  0  0
 19 35  1  0  0  0  0
 20 36  1  0  0  0  0
 20 37  1  0  0  0  0
 20 38  1  0  0  0  0
 24 39  1  0  0  0  0
 24 40  1  0  0  0  0
M  END
> <id>
EN300-18215325

> <smiles>
CC1=C(C#N)C=2N=C(N)C(C#N)=C(C)C2C1=CC=3C=CC=4OCOC4C3

> <IUPAC Name>
2-amino-5-[(1,3-dioxaindan-5-yl)methylidene]-4,6-dimethyl-5H-cyclopenta[b]pyridine-3,7-dicarbonitrile

> <CAS>
309949-25-5

> <URL>
https://www.enaminestore.com/catalog/EN300-18215325

> <ROCS_ShapeQuery>
_x0404_0B

> <ROCS_TanimotoCombo>
0.461 

> <ROCS_ShapeTanimoto>
0.397 

> <ROCS_ColorTanimoto>
0.064 

> <ROCS_RefTversky>
0.349 

> <ROCS_RefColorTversky>
0.072 

> <ROCS_RefTverskyCombo>
0.421 

> <ROCS_FitTversky>
1.544 

> <ROCS_FitColorTversky>
0.365 

> <ROCS_FitTverskyCombo>
1.908 

> <ROCS_ColorScore>
-5.208

> <ROCS_Overlap>
2330.985

> <ROCS_Rank>
46                  

$$$$
untitled-dbase-125133_32
  -OEChem-08222312023D

 39 42  0     1  0  0  0  0  0999 V2000
   -9.2684    2.4887   -7.4250 C   0  0  0  0  0  0  0  0  0  0  0  0
   -9.5068    3.6344   -6.6688 C   0  0  0  0  0  0  0  0  0  0  0  0
   -8.9391    2.5814   -8.7820 C   0  0  0  0  0  0  0  0  0  0  0  0
   -9.4247    4.9065   -7.2421 C   0  0  0  0  0  0  0  0  0  0  0  0
   -9.5925    5.4043  -16.2565 C   0  0  0  0  0  0  0  0  0  0  0  0
   -7.2895    6.0880  -16.1428 C   0  0  0  0  0  0  0  0  0  0  0  0
   -9.3072    4.8371  -17.4880 C   0  0  0  0  0  0  0  0  0  0  0  0
   -8.8487    3.8526   -9.3831 C   0  0  0  0  0  0  0  0  0  0  0  0
   -8.5589    6.0398  -15.5775 C   0  0  0  0  0  0  0  0  0  0  0  0
   -8.5501    4.3181  -10.6895 C   0  0  0  0  0  0  0  0  0  0  0  0
   -9.0945    4.9868   -8.5997 C   0  0  0  0  0  0  0  0  0  0  0  0
   -8.6133    5.6909  -10.6739 C   0  0  0  0  0  0  0  0  0  0  0  0
   -7.1072    5.4900  -17.3793 C   0  0  0  0  0  0  0  0  0  0  0  0
   -8.8069    6.6572  -14.2680 C   0  0  0  0  0  0  0  0  0  0  0  0
   -8.2237    3.6194  -11.9513 C   0  0  0  0  0  0  0  0  0  0  0  0
   -8.8450    4.3913  -13.1259 C   0  0  0  0  0  0  0  0  0  0  0  0
   -8.3483    6.5855  -11.8341 C   0  0  1  0  0  0  0  0  0  0  0  0
   -6.8946    7.0705  -11.7999 C   0  0  0  0  0  0  0  0  0  0  0  0
   -8.0868    4.8636  -18.0690 N   0  0  0  0  0  0  0  0  0  0  0  0
   -8.9473    6.0923   -9.4125 N   0  0  0  0  0  0  0  0  0  0  0  0
   -8.6291    5.8680  -13.1156 N   0  0  0  0  0  0  0  0  0  0  0  0
   -9.1611    7.8353  -14.2824 O   0  0  0  0  0  0  0  0  0  0  0  0
   -5.8872    5.5282  -17.9366 F   0  0  0  0  0  0  0  0  0  0  0  0
   -9.3395    1.5102   -6.9569 H   0  0  0  0  0  0  0  0  0  0  0  0
   -9.7620    3.5387   -5.6165 H   0  0  0  0  0  0  0  0  0  0  0  0
   -8.7552    1.6791   -9.3579 H   0  0  0  0  0  0  0  0  0  0  0  0
   -9.6119    5.7973   -6.6517 H   0  0  0  0  0  0  0  0  0  0  0  0
  -10.5943    5.3487  -15.8438 H   0  0  0  0  0  0  0  0  0  0  0  0
   -6.4615    6.5755  -15.6393 H   0  0  0  0  0  0  0  0  0  0  0  0
  -10.0787    4.3297  -18.0579 H   0  0  0  0  0  0  0  0  0  0  0  0
   -7.1419    3.5527  -12.0902 H   0  0  0  0  0  0  0  0  0  0  0  0
   -8.6276    2.6036  -11.9231 H   0  0  0  0  0  0  0  0  0  0  0  0
   -8.4261    4.0224  -14.0906 H   0  0  0  0  0  0  0  0  0  0  0  0
   -9.9284    4.1484  -13.1843 H   0  0  0  0  0  0  0  0  0  0  0  0
   -8.9983    7.4629  -11.7733 H   0  0  0  0  0  0  0  0  0  0  0  0
   -6.2201    6.2180  -11.8590 H   0  0  0  0  0  0  0  0  0  0  0  0
   -6.7077    7.6099  -10.8730 H   0  0  0  0  0  0  0  0  0  0  0  0
   -6.7071    7.7332  -12.6430 H   0  0  0  0  0  0  0  0  0  0  0  0
   -9.0667    7.0488   -9.1134 H   0  0  0  0  0  0  0  0  0  0  0  0
  1  2  2  0  0  0  0
  1  3  1  0  0  0  0
  2  4  1  0  0  0  0
  3  8  2  0  0  0  0
  4 11  2  0  0  0  0
  5  7  1  0  0  0  0
  5  9  2  0  0  0  0
  6  9  1  0  0  0  0
  6 13  2  0  0  0  0
  7 19  2  0  0  0  0
  8 10  1  0  0  0  0
  8 11  1  0  0  0  0
  9 14  1  0  0  0  0
 10 12  2  0  0  0  0
 10 15  1  0  0  0  0
 11 20  1  0  0  0  0
 12 17  1  0  0  0  0
 12 20  1  0  0  0  0
 13 19  1  0  0  0  0
 13 23  1  0  0  0  0
 14 21  1  0  0  0  0
 14 22  2  0  0  0  0
 15 16  1  0  0  0  0
 16 21  1  0  0  0  0
 17 18  1  0  0  0  0
 17 21  1  0  0  0  0
  1 24  1  0  0  0  0
  2 25  1  0  0  0  0
  3 26  1  0  0  0  0
  4 27  1  0  0  0  0
  5 28  1  0  0  0  0
  6 29  1  0  0  0  0
  7 30  1  0  0  0  0
 15 31  1  0  0  0  0
 15 32  1  0  0  0  0
 16 33  1  0  0  0  0
 16 34  1  0  0  0  0
 17 35  1  0  0  0  0
 18 36  1  0  0  0  0
 18 37  1  0  0  0  0
 18 38  1  0  0  0  0
 20 39  1  0  0  0  0
M  END
> <id>
EN300-26614623

> <smiles>
CC1N(CCC2=C1NC=3C=CC=CC23)C(=O)C=4C=CN=C(F)C4

> <IUPAC Name>
2-fluoro-4-{1-methyl-1H,2H,3H,4H,9H-pyrido[3,4-b]indole-2-carbonyl}pyridine

> <CAS>
1280977-50-5

> <URL>
https://www.enaminestore.com/catalog/EN300-26614623

> <ROCS_ShapeQuery>
_x0404_0B

> <ROCS_TanimotoCombo>
0.461 

> <ROCS_ShapeTanimoto>
0.399 

> <ROCS_ColorTanimoto>
0.063 

> <ROCS_RefTversky>
0.343 

> <ROCS_RefColorTversky>
0.067 

> <ROCS_RefTverskyCombo>
0.411 

> <ROCS_FitTversky>
1.675 

> <ROCS_FitColorTversky>
0.465 

> <ROCS_FitTverskyCombo>
2.140 

> <ROCS_ColorScore>
-4.866

> <ROCS_Overlap>
2293.827

> <ROCS_Rank>
47                  

$$$$
untitled-dbase-32052_27
  -OEChem-08222312023D

 49 53  0     1  0  0  0  0  0999 V2000
   -9.7362    5.1437  -18.6479 C   0  0  0  0  0  0  0  0  0  0  0  0
   -8.4334    4.6914  -18.8459 C   0  0  0  0  0  0  0  0  0  0  0  0
  -10.2049    5.4376  -17.3624 C   0  0  0  0  0  0  0  0  0  0  0  0
   -7.5586    4.5196  -17.7695 C   0  0  0  0  0  0  0  0  0  0  0  0
   -9.3433    5.2695  -16.2599 C   0  0  0  0  0  0  0  0  0  0  0  0
   -9.4718    5.4633  -14.8580 C   0  0  0  0  0  0  0  0  0  0  0  0
   -8.0386    4.8166  -16.4888 C   0  0  0  0  0  0  0  0  0  0  0  0
   -8.2667    5.1286  -14.2800 C   0  0  0  0  0  0  0  0  0  0  0  0
   -6.3768    1.6316  -10.4088 C   0  0  0  0  0  0  0  0  0  0  0  0
  -10.6105    5.9558  -14.0358 C   0  0  0  0  0  0  0  0  0  0  0  0
   -8.5015    4.7039   -8.5263 C   0  0  0  0  0  0  0  0  0  0  0  0
   -7.7424    3.5121   -7.9390 C   0  0  0  0  0  0  0  0  0  0  0  0
   -7.8809    3.7354  -12.2485 C   0  0  0  0  0  0  0  0  0  0  0  0
  -10.3715    5.6785  -12.5320 C   0  0  0  0  0  0  0  0  0  0  0  0
   -8.8002    6.0003  -10.6755 C   0  0  0  0  0  0  0  0  0  0  0  0
   -7.9647    5.1659  -12.8144 C   0  0  2  0  0  0  0  0  0  0  0  0
   -7.7089    2.2833  -10.1709 C   0  0  2  0  0  0  0  0  0  0  0  0
   -8.7436    4.6002  -10.0429 C   0  0  1  0  0  0  0  0  0  0  0  0
   -7.6781    3.7273  -10.7241 C   0  0  2  0  0  0  0  0  0  0  0  0
   -8.0350    2.2044   -8.6687 C   0  0  2  0  0  0  0  0  0  0  0  0
   -7.4041    4.7449  -15.2661 N   0  0  0  0  0  0  0  0  0  0  0  0
   -8.9857    6.0019  -12.1296 N   0  0  1  0  0  0  0  0  0  0  0  0
   -5.3028    2.2144  -10.4219 O   0  0  0  0  0  0  0  0  0  0  0  0
   -6.5250    0.2997  -10.6117 O   0  0  0  0  0  0  0  0  0  0  0  0
   -9.4185    1.8778   -8.5231 O   0  0  0  0  0  0  0  0  0  0  0  0
  -10.3974    5.2711  -19.5010 H   0  0  0  0  0  0  0  0  0  0  0  0
   -8.0904    4.4687  -19.8531 H   0  0  0  0  0  0  0  0  0  0  0  0
  -11.2229    5.7906  -17.2240 H   0  0  0  0  0  0  0  0  0  0  0  0
   -6.5442    4.1680  -17.9259 H   0  0  0  0  0  0  0  0  0  0  0  0
  -10.7595    7.0310  -14.1898 H   0  0  0  0  0  0  0  0  0  0  0  0
  -11.5260    5.4440  -14.3600 H   0  0  0  0  0  0  0  0  0  0  0  0
   -9.4720    4.8039   -7.9998 H   0  0  0  0  0  0  0  0  0  0  0  0
   -7.9478    5.6378   -8.2978 H   0  0  0  0  0  0  0  0  0  0  0  0
   -6.6617    3.7145   -7.9600 H   0  0  0  0  0  0  0  0  0  0  0  0
   -7.9943    3.4067   -6.8726 H   0  0  0  0  0  0  0  0  0  0  0  0
   -8.7939    3.1711  -12.5103 H   0  0  0  0  0  0  0  0  0  0  0  0
   -7.0491    3.1982  -12.7336 H   0  0  0  0  0  0  0  0  0  0  0  0
  -11.0857    6.2560  -11.9263 H   0  0  0  0  0  0  0  0  0  0  0  0
  -10.5847    4.6161  -12.3511 H   0  0  0  0  0  0  0  0  0  0  0  0
   -9.6421    6.5571  -10.1997 H   0  0  0  0  0  0  0  0  0  0  0  0
   -7.8861    6.5829  -10.4004 H   0  0  0  0  0  0  0  0  0  0  0  0
   -6.9690    5.6406  -12.7176 H   0  0  0  0  0  0  0  0  0  0  0  0
   -8.4499    1.6791  -10.7387 H   0  0  0  0  0  0  0  0  0  0  0  0
   -9.7309    4.1315  -10.1873 H   0  0  0  0  0  0  0  0  0  0  0  0
   -6.6863    4.1476  -10.5201 H   0  0  0  0  0  0  0  0  0  0  0  0
   -7.4568    1.3875   -8.2052 H   0  0  0  0  0  0  0  0  0  0  0  0
   -6.4474    4.4516  -15.1299 H   0  0  0  0  0  0  0  0  0  0  0  0
   -7.4651    0.0238  -10.5619 H   0  0  0  0  0  0  0  0  0  0  0  0
   -9.5794    1.7883   -7.5718 H   0  0  0  0  0  0  0  0  0  0  0  0
  1  2  2  0  0  0  0
  1  3  1  0  0  0  0
  2  4  1  0  0  0  0
  3  5  2  0  0  0  0
  4  7  2  0  0  0  0
  5  6  1  0  0  0  0
  5  7  1  0  0  0  0
  6  8  2  0  0  0  0
  6 10  1  0  0  0  0
  7 21  1  0  0  0  0
  8 16  1  0  0  0  0
  8 21  1  0  0  0  0
  9 17  1  0  0  0  0
  9 23  2  0  0  0  0
  9 24  1  0  0  0  0
 10 14  1  0  0  0  0
 11 12  1  0  0  0  0
 11 18  1  0  0  0  0
 12 20  1  0  0  0  0
 13 16  1  0  0  0  0
 13 19  1  0  0  0  0
 14 22  1  0  0  0  0
 15 18  1  0  0  0  0
 15 22  1  0  0  0  0
 16 22  1  0  0  0  0
 17 19  1  0  0  0  0
 17 20  1  0  0  0  0
 18 19  1  0  0  0  0
 20 25  1  0  0  0  0
  1 26  1  0  0  0  0
  2 27  1  0  0  0  0
  3 28  1  0  0  0  0
  4 29  1  0  0  0  0
 10 30  1  0  0  0  0
 10 31  1  0  0  0  0
 11 32  1  0  0  0  0
 11 33  1  0  0  0  0
 12 34  1  0  0  0  0
 12 35  1  0  0  0  0
 13 36  1  0  0  0  0
 13 37  1  0  0  0  0
 14 38  1  0  0  0  0
 14 39  1  0  0  0  0
 15 40  1  0  0  0  0
 15 41  1  0  0  0  0
 16 42  1  0  0  0  0
 17 43  1  0  0  0  0
 18 44  1  0  0  0  0
 19 45  1  0  0  0  0
 20 46  1  0  0  0  0
 21 47  1  0  0  0  0
 24 48  1  0  0  0  0
 25 49  1  0  0  0  0
M  END
> <id>
EN300-717855

> <smiles>
OC1CCC2CN3CCC4=C(NC=5C=CC=CC45)C3CC2C1C(=O)O

> <MDLNUMBER>
MFCD28952432

> <IUPAC Name>
18-hydroxy-3,13-diazapentacyclo[11.8.0.0^{2,10}.0^{4,9}.0^{15,20}]henicosa-2(10),4(9),5,7-tetraene-19-carboxylic acid

> <CAS>
875845-00-4

> <URL>
https://www.enaminestore.com/catalog/EN300-717855

> <ROCS_ShapeQuery>
_x0404_0B

> <ROCS_TanimotoCombo>
0.460 

> <ROCS_ShapeTanimoto>
0.344 

> <ROCS_ColorTanimoto>
0.116 

> <ROCS_RefTversky>
0.311 

> <ROCS_RefColorTversky>
0.126 

> <ROCS_RefTverskyCombo>
0.437 

> <ROCS_FitTversky>
1.436 

> <ROCS_FitColorTversky>
0.598 

> <ROCS_FitTverskyCombo>
2.034 

> <ROCS_ColorScore>
-9.106

> <ROCS_Overlap>
2080.891

> <ROCS_Rank>
48                  

$$$$
untitled-dbase-73551_2421
  -OEChem-08222312023D

 47 48  0     0  0  0  0  0  0999 V2000
   -8.6993    4.8146  -19.2289 C   0  0  0  0  0  0  0  0  0  0  0  0
   -9.9264    4.5198  -18.6349 C   0  0  0  0  0  0  0  0  0  0  0  0
   -7.5693    5.0105  -18.4349 C   0  0  0  0  0  0  0  0  0  0  0  0
  -10.0235    4.4209  -17.2469 C   0  0  0  0  0  0  0  0  0  0  0  0
   -7.6664    4.9117  -17.0470 C   0  0  0  0  0  0  0  0  0  0  0  0
   -8.8935    4.6169  -16.4529 C   0  0  0  0  0  0  0  0  0  0  0  0
   -8.6629    5.6821  -14.3763 C   0  0  0  0  0  0  0  0  0  0  0  0
   -8.7103    5.2514   -8.7102 C   0  0  0  0  0  0  0  0  0  0  0  0
   -9.2303    4.2961  -12.3532 C   0  0  0  0  0  0  0  0  0  0  0  0
   -8.5072    6.6814  -12.1243 C   0  0  0  0  0  0  0  0  0  0  0  0
   -8.6646    4.1223  -10.9494 C   0  0  0  0  0  0  0  0  0  0  0  0
   -9.1684    6.5648  -10.7593 C   0  0  0  0  0  0  0  0  0  0  0  0
   -6.4466    5.1248  -16.2130 C   0  0  0  0  0  0  0  0  0  0  0  0
  -10.7188    3.9288   -7.6634 C   0  0  0  0  0  0  0  0  0  0  0  0
   -9.2605    1.8864   -7.5580 C   0  0  0  0  0  0  0  0  0  0  0  0
   -8.9054    3.7621   -5.9260 C   0  0  0  0  0  0  0  0  0  0  0  0
   -9.3204    3.3982   -7.3508 C   0  0  0  0  0  0  0  0  0  0  0  0
   -8.7913    5.5396  -12.9900 N   0  0  0  0  0  0  0  0  0  0  0  0
   -8.8448    5.3020  -10.1014 N   0  0  0  0  0  0  0  0  0  0  0  0
   -8.2960    6.7171  -14.9315 O   0  0  0  0  0  0  0  0  0  0  0  0
   -8.8533    6.2178   -7.9637 O   0  0  0  0  0  0  0  0  0  0  0  0
   -9.0087    4.5149  -15.0630 O   0  0  0  0  0  0  0  0  0  0  0  0
   -8.3918    3.9958   -8.2628 O   0  0  0  0  0  0  0  0  0  0  0  0
   -8.6233    4.8923  -20.3097 H   0  0  0  0  0  0  0  0  0  0  0  0
  -10.8061    4.3682  -19.2533 H   0  0  0  0  0  0  0  0  0  0  0  0
   -6.6181    5.2413  -18.9074 H   0  0  0  0  0  0  0  0  0  0  0  0
  -10.9822    4.1911  -16.7899 H   0  0  0  0  0  0  0  0  0  0  0  0
   -8.9647    3.4208  -12.9630 H   0  0  0  0  0  0  0  0  0  0  0  0
  -10.3312    4.3293  -12.3162 H   0  0  0  0  0  0  0  0  0  0  0  0
   -8.8717    7.5803  -12.6481 H   0  0  0  0  0  0  0  0  0  0  0  0
   -7.4206    6.8108  -12.0010 H   0  0  0  0  0  0  0  0  0  0  0  0
   -9.1108    3.2275  -10.4857 H   0  0  0  0  0  0  0  0  0  0  0  0
   -7.5776    3.9312  -11.0007 H   0  0  0  0  0  0  0  0  0  0  0  0
   -8.8207    7.3711  -10.0983 H   0  0  0  0  0  0  0  0  0  0  0  0
  -10.2552    6.6796  -10.8603 H   0  0  0  0  0  0  0  0  0  0  0  0
   -6.3499    6.1832  -15.9439 H   0  0  0  0  0  0  0  0  0  0  0  0
   -6.4880    4.5324  -15.2904 H   0  0  0  0  0  0  0  0  0  0  0  0
   -5.5403    4.8166  -16.7493 H   0  0  0  0  0  0  0  0  0  0  0  0
  -10.7659    5.0137   -7.5159 H   0  0  0  0  0  0  0  0  0  0  0  0
  -11.0142    3.7048   -8.6936 H   0  0  0  0  0  0  0  0  0  0  0  0
  -11.4628    3.4923   -6.9873 H   0  0  0  0  0  0  0  0  0  0  0  0
   -8.2589    1.5013   -7.3349 H   0  0  0  0  0  0  0  0  0  0  0  0
   -9.4650    1.6273   -8.6032 H   0  0  0  0  0  0  0  0  0  0  0  0
   -9.9826    1.3627   -6.9233 H   0  0  0  0  0  0  0  0  0  0  0  0
   -7.9024    3.3816   -5.7015 H   0  0  0  0  0  0  0  0  0  0  0  0
   -8.9069    4.8458   -5.7698 H   0  0  0  0  0  0  0  0  0  0  0  0
   -9.5808    3.3039   -5.1944 H   0  0  0  0  0  0  0  0  0  0  0  0
  1  2  2  0  0  0  0
  1  3  1  0  0  0  0
  2  4  1  0  0  0  0
  3  5  2  0  0  0  0
  4  6  2  0  0  0  0
  5  6  1  0  0  0  0
  5 13  1  0  0  0  0
  6 22  1  0  0  0  0
  7 18  1  0  0  0  0
  7 20  2  0  0  0  0
  7 22  1  0  0  0  0
  8 19  1  0  0  0  0
  8 21  2  0  0  0  0
  8 23  1  0  0  0  0
  9 11  1  0  0  0  0
  9 18  1  0  0  0  0
 10 12  1  0  0  0  0
 10 18  1  0  0  0  0
 11 19  1  0  0  0  0
 12 19  1  0  0  0  0
 14 17  1  0  0  0  0
 15 17  1  0  0  0  0
 16 17  1  0  0  0  0
 17 23  1  0  0  0  0
  1 24  1  0  0  0  0
  2 25  1  0  0  0  0
  3 26  1  0  0  0  0
  4 27  1  0  0  0  0
  9 28  1  0  0  0  0
  9 29  1  0  0  0  0
 10 30  1  0  0  0  0
 10 31  1  0  0  0  0
 11 32  1  0  0  0  0
 11 33  1  0  0  0  0
 12 34  1  0  0  0  0
 12 35  1  0  0  0  0
 13 36  1  0  0  0  0
 13 37  1  0  0  0  0
 13 38  1  0  0  0  0
 14 39  1  0  0  0  0
 14 40  1  0  0  0  0
 14 41  1  0  0  0  0
 15 42  1  0  0  0  0
 15 43  1  0  0  0  0
 15 44  1  0  0  0  0
 16 45  1  0  0  0  0
 16 46  1  0  0  0  0
 16 47  1  0  0  0  0
M  END
> <id>
EN300-749251

> <smiles>
CC=1C=CC=CC1OC(=O)N2CCN(CC2)C(=O)OC(C)(C)C

> <MDLNUMBER>
MFCD32640345

> <IUPAC Name>
1-tert-butyl 4-(2-methylphenyl) piperazine-1,4-dicarboxylate

> <CAS>
2108456-47-7

> <URL>
https://www.enaminestore.com/catalog/EN300-749251

> <ROCS_ShapeQuery>
_x0404_0B

> <ROCS_TanimotoCombo>
0.460 

> <ROCS_ShapeTanimoto>
0.387 

> <ROCS_ColorTanimoto>
0.072 

> <ROCS_RefTversky>
0.334 

> <ROCS_RefColorTversky>
0.075 

> <ROCS_RefTverskyCombo>
0.410 

> <ROCS_FitTversky>
1.691 

> <ROCS_FitColorTversky>
0.638 

> <ROCS_FitTverskyCombo>
2.329 

> <ROCS_ColorScore>
-5.441

> <ROCS_Overlap>
2233.178

> <ROCS_Rank>
49                  

$$$$
untitled-dbase-157716_0
  -OEChem-08222312023D

 35 38  0     1  0  0  0  0  0999 V2000
   -8.2919    3.6496  -11.2946 C   0  0  0  0  0  0  0  0  0  0  0  0
   -8.8915    6.4135  -11.8561 C   0  0  0  0  0  0  0  0  0  0  0  0
   -8.2430    4.1735  -12.5707 C   0  0  0  0  0  0  0  0  0  0  0  0
   -8.6512    4.5580  -10.3118 C   0  0  0  0  0  0  0  0  0  0  0  0
   -8.5333    5.5121  -12.8432 C   0  0  0  0  0  0  0  0  0  0  0  0
   -8.9468    5.9067  -10.5641 C   0  0  0  0  0  0  0  0  0  0  0  0
   -8.7918    4.3268   -8.8824 C   0  0  0  0  0  0  0  0  0  0  0  0
   -7.9049    3.5197  -13.8350 C   0  0  0  0  0  0  0  0  0  0  0  0
   -8.3819    5.7202  -14.2832 C   0  0  0  0  0  0  0  0  0  0  0  0
   -7.4654    5.1519  -18.9506 C   0  0  0  0  0  0  0  0  0  0  0  0
   -6.5660    5.0957  -16.6089 C   0  0  0  0  0  0  0  0  0  0  0  0
   -9.3033    6.6579   -9.3202 C   0  0  0  0  0  0  0  0  0  0  0  0
   -9.2006    5.6096   -8.1993 C   0  0  0  0  0  0  0  0  0  0  0  0
   -8.6566    4.3365  -18.5074 C   0  0  0  0  0  0  0  0  0  0  0  0
   -8.9805    4.5763  -17.0441 C   0  0  0  0  0  0  0  0  0  0  0  0
   -7.7600    4.2530  -16.1974 C   0  0  2  0  0  0  0  0  0  0  0  0
   -6.5331    5.4421  -17.9593 N   0  0  0  0  0  0  0  0  0  0  0  0
   -8.0136    4.4964  -14.8023 N   0  0  0  0  0  0  0  0  0  0  0  0
   -8.6036    3.2524   -8.3412 O   0  0  0  0  0  0  0  0  0  0  0  0
   -7.5990    2.3462  -13.9369 O   0  0  0  0  0  0  0  0  0  0  0  0
   -8.5617    6.7885  -14.8381 O   0  0  0  0  0  0  0  0  0  0  0  0
   -7.3175    5.4854  -20.1262 O   0  0  0  0  0  0  0  0  0  0  0  0
   -5.6563    5.3876  -15.8327 O   0  0  0  0  0  0  0  0  0  0  0  0
   -8.0675    2.6136  -11.0793 H   0  0  0  0  0  0  0  0  0  0  0  0
   -9.1139    7.4505  -12.0740 H   0  0  0  0  0  0  0  0  0  0  0  0
   -8.6030    7.4813   -9.1458 H   0  0  0  0  0  0  0  0  0  0  0  0
  -10.3200    7.0593   -9.3835 H   0  0  0  0  0  0  0  0  0  0  0  0
  -10.1655    5.4727   -7.7021 H   0  0  0  0  0  0  0  0  0  0  0  0
   -8.4417    5.8950   -7.4646 H   0  0  0  0  0  0  0  0  0  0  0  0
   -9.5175    4.6147  -19.1249 H   0  0  0  0  0  0  0  0  0  0  0  0
   -8.4322    3.2796  -18.6899 H   0  0  0  0  0  0  0  0  0  0  0  0
   -9.2768    5.6243  -16.9041 H   0  0  0  0  0  0  0  0  0  0  0  0
   -9.8297    3.9495  -16.7482 H   0  0  0  0  0  0  0  0  0  0  0  0
   -7.4828    3.1974  -16.3048 H   0  0  0  0  0  0  0  0  0  0  0  0
   -5.7219    5.9765  -18.2586 H   0  0  0  0  0  0  0  0  0  0  0  0
  1  3  1  0  0  0  0
  1  4  2  0  0  0  0
  2  5  1  0  0  0  0
  2  6  2  0  0  0  0
  3  5  2  0  0  0  0
  3  8  1  0  0  0  0
  4  6  1  0  0  0  0
  4  7  1  0  0  0  0
  5  9  1  0  0  0  0
  6 12  1  0  0  0  0
  7 13  1  0  0  0  0
  7 19  2  0  0  0  0
  8 18  1  0  0  0  0
  8 20  2  0  0  0  0
  9 18  1  0  0  0  0
  9 21  2  0  0  0  0
 10 14  1  0  0  0  0
 10 17  1  0  0  0  0
 10 22  2  0  0  0  0
 11 16  1  0  0  0  0
 11 17  1  0  0  0  0
 11 23  2  0  0  0  0
 12 13  1  0  0  0  0
 14 15  1  0  0  0  0
 15 16  1  0  0  0  0
 16 18  1  0  0  0  0
  1 24  1  0  0  0  0
  2 25  1  0  0  0  0
 12 26  1  0  0  0  0
 12 27  1  0  0  0  0
 13 28  1  0  0  0  0
 13 29  1  0  0  0  0
 14 30  1  0  0  0  0
 14 31  1  0  0  0  0
 15 32  1  0  0  0  0
 15 33  1  0  0  0  0
 16 34  1  0  0  0  0
 17 35  1  0  0  0  0
M  END
> <id>
EN300-39872084

> <smiles>
O=C1CCC=2C=C3C(=O)N(C4CCC(=O)NC4=O)C(=O)C3=CC12

> <IUPAC Name>
2-(2,6-dioxopiperidin-3-yl)-1H,2H,3H,5H,6H,7H-cyclopenta[f]isoindole-1,3,5-trione

> <URL>
https://www.enaminestore.com/catalog/EN300-39872084

> <ROCS_ShapeQuery>
_x0404_0B

> <ROCS_TanimotoCombo>
0.460 

> <ROCS_ShapeTanimoto>
0.371 

> <ROCS_ColorTanimoto>
0.089 

> <ROCS_RefTversky>
0.326 

> <ROCS_RefColorTversky>
0.097 

> <ROCS_RefTverskyCombo>
0.423 

> <ROCS_FitTversky>
1.574 

> <ROCS_FitColorTversky>
0.526 

> <ROCS_FitTverskyCombo>
2.101 

> <ROCS_ColorScore>
-7.009

> <ROCS_Overlap>
2180.569

> <ROCS_Rank>
50                  

$$$$
untitled-dbase-104173_1402
  -OEChem-08222312023D

 49 51  0     1  0  0  0  0  0999 V2000
   -7.0038    3.9285  -12.3203 C   0  0  0  0  0  0  0  0  0  0  0  0
   -7.6686    4.0651  -21.0560 C   0  0  0  0  0  0  0  0  0  0  0  0
   -8.9984    3.7290  -21.2659 C   0  0  0  0  0  0  0  0  0  0  0  0
   -7.2312    4.4553  -19.7875 C   0  0  0  0  0  0  0  0  0  0  0  0
   -9.9180    3.7749  -20.2163 C   0  0  0  0  0  0  0  0  0  0  0  0
   -8.1391    4.5121  -18.7025 C   0  0  0  0  0  0  0  0  0  0  0  0
   -9.4738    4.1686  -18.9387 C   0  0  0  0  0  0  0  0  0  0  0  0
   -7.9318    4.8769  -17.3299 C   0  0  0  0  0  0  0  0  0  0  0  0
   -9.0801    4.8042  -16.5777 C   0  0  0  0  0  0  0  0  0  0  0  0
   -8.6518    5.9869  -14.3917 C   0  0  0  0  0  0  0  0  0  0  0  0
   -8.7006    4.8924   -8.9277 C   0  0  0  0  0  0  0  0  0  0  0  0
   -8.5264    6.6958  -12.0211 C   0  0  0  0  0  0  0  0  0  0  0  0
   -9.3576    6.4039  -10.7810 C   0  0  0  0  0  0  0  0  0  0  0  0
   -9.2313    3.9881  -11.2289 C   0  0  0  0  0  0  0  0  0  0  0  0
   -8.4328    4.2344  -12.5179 C   0  0  1  0  0  0  0  0  0  0  0  0
  -10.6466    3.7059   -7.6268 C   0  0  0  0  0  0  0  0  0  0  0  0
   -9.4378    1.5216   -7.9039 C   0  0  0  0  0  0  0  0  0  0  0  0
   -8.5997    3.2134   -6.2476 C   0  0  0  0  0  0  0  0  0  0  0  0
   -9.2866    3.0100   -7.5972 C   0  0  0  0  0  0  0  0  0  0  0  0
   -5.8795    3.6879  -12.1647 N   0  0  0  0  0  0  0  0  0  0  0  0
   -8.5921    5.6198  -13.0215 N   0  0  0  0  0  0  0  0  0  0  0  0
   -9.0640    5.0743  -10.2642 N   0  0  0  0  0  0  0  0  0  0  0  0
   -9.3201    5.0714  -15.2064 N   0  0  0  0  0  0  0  0  0  0  0  0
   -8.1296    7.0237  -14.8092 O   0  0  0  0  0  0  0  0  0  0  0  0
   -8.6016    5.8023   -8.1066 O   0  0  0  0  0  0  0  0  0  0  0  0
   -8.4610    3.5795   -8.6196 O   0  0  0  0  0  0  0  0  0  0  0  0
  -10.4195    4.2990  -17.5028 S   0  0  0  0  0  0  0  0  0  0  0  0
   -6.4029    5.3517  -16.7072 Cl  0  0  0  0  0  0  0  0  0  0  0  0
   -6.9628    4.0258  -21.8810 H   0  0  0  0  0  0  0  0  0  0  0  0
   -9.3295    3.4277  -22.2560 H   0  0  0  0  0  0  0  0  0  0  0  0
   -6.1844    4.7135  -19.6483 H   0  0  0  0  0  0  0  0  0  0  0  0
  -10.9572    3.5103  -20.3900 H   0  0  0  0  0  0  0  0  0  0  0  0
   -8.8474    7.6474  -12.4569 H   0  0  0  0  0  0  0  0  0  0  0  0
   -7.4704    6.8124  -11.7482 H   0  0  0  0  0  0  0  0  0  0  0  0
   -9.1705    7.1674  -10.0192 H   0  0  0  0  0  0  0  0  0  0  0  0
  -10.4270    6.4355  -11.0210 H   0  0  0  0  0  0  0  0  0  0  0  0
  -10.3026    3.9468  -11.4639 H   0  0  0  0  0  0  0  0  0  0  0  0
   -8.9656    3.0210  -10.7904 H   0  0  0  0  0  0  0  0  0  0  0  0
   -8.8325    3.5350  -13.2574 H   0  0  0  0  0  0  0  0  0  0  0  0
  -10.5424    4.7745   -7.4071 H   0  0  0  0  0  0  0  0  0  0  0  0
  -11.1343    3.5972   -8.6010 H   0  0  0  0  0  0  0  0  0  0  0  0
  -11.3124    3.2960   -6.8587 H   0  0  0  0  0  0  0  0  0  0  0  0
   -8.4644    1.0183   -7.8838 H   0  0  0  0  0  0  0  0  0  0  0  0
   -9.8430    1.3698   -8.9109 H   0  0  0  0  0  0  0  0  0  0  0  0
  -10.0991    1.0263   -7.1858 H   0  0  0  0  0  0  0  0  0  0  0  0
   -7.6241    2.7144   -6.2262 H   0  0  0  0  0  0  0  0  0  0  0  0
   -8.4495    4.2754   -6.0275 H   0  0  0  0  0  0  0  0  0  0  0  0
   -9.1915    2.7704   -5.4384 H   0  0  0  0  0  0  0  0  0  0  0  0
  -10.1030    4.5005  -14.7606 H   0  0  0  0  0  0  0  0  0  0  0  0
  1 15  1  0  0  0  0
  1 20  3  0  0  0  0
  2  3  2  0  0  0  0
  2  4  1  0  0  0  0
  3  5  1  0  0  0  0
  4  6  2  0  0  0  0
  5  7  2  0  0  0  0
  6  7  1  0  0  0  0
  6  8  1  0  0  0  0
  7 27  1  0  0  0  0
  8  9  2  0  0  0  0
  8 28  1  0  0  0  0
  9 23  1  0  0  0  0
  9 27  1  0  0  0  0
 10 21  1  0  0  0  0
 10 23  1  0  0  0  0
 10 24  2  0  0  0  0
 11 22  1  0  0  0  0
 11 25  2  0  0  0  0
 11 26  1  0  0  0  0
 12 13  1  0  0  0  0
 12 21  1  0  0  0  0
 13 22  1  0  0  0  0
 14 15  1  0  0  0  0
 14 22  1  0  0  0  0
 15 21  1  0  0  0  0
 16 19  1  0  0  0  0
 17 19  1  0  0  0  0
 18 19  1  0  0  0  0
 19 26  1  0  0  0  0
  2 29  1  0  0  0  0
  3 30  1  0  0  0  0
  4 31  1  0  0  0  0
  5 32  1  0  0  0  0
 12 33  1  0  0  0  0
 12 34  1  0  0  0  0
 13 35  1  0  0  0  0
 13 36  1  0  0  0  0
 14 37  1  0  0  0  0
 14 38  1  0  0  0  0
 15 39  1  0  0  0  0
 16 40  1  0  0  0  0
 16 41  1  0  0  0  0
 16 42  1  0  0  0  0
 17 43  1  0  0  0  0
 17 44  1  0  0  0  0
 17 45  1  0  0  0  0
 18 46  1  0  0  0  0
 18 47  1  0  0  0  0
 18 48  1  0  0  0  0
 23 49  1  0  0  0  0
M  END
> <id>
EN300-26681282

> <smiles>
CC(C)(C)OC(=O)N1CCN(C(C1)C#N)C(=O)NC=2SC=3C=CC=CC3C2Cl

> <IUPAC Name>
tert-butyl 4-[(3-chloro-1-benzothiophen-2-yl)carbamoyl]-3-cyanopiperazine-1-carboxylate

> <CAS>
1394768-62-7

> <URL>
https://www.enaminestore.com/catalog/EN300-26681282

> <ROCS_ShapeQuery>
_x0404_0B

> <ROCS_TanimotoCombo>
0.460 

> <ROCS_ShapeTanimoto>
0.387 

> <ROCS_ColorTanimoto>
0.072 

> <ROCS_RefTversky>
0.343 

> <ROCS_RefColorTversky>
0.078 

> <ROCS_RefTverskyCombo>
0.421 

> <ROCS_FitTversky>
1.504 

> <ROCS_FitColorTversky>
0.494 

> <ROCS_FitTverskyCombo>
1.997 

> <ROCS_ColorScore>
-5.622

> <ROCS_Overlap>
2293.093

> <ROCS_Rank>
51                  

$$$$
untitled-dbase-103705_2762
  -OEChem-08222312023D

 62 65  0     0  0  0  0  0  0999 V2000
   -9.0692    3.9401   -9.2716 B   0  0  0  0  0  0  0  0  0  0  0  0
   -9.4432    6.2952  -14.4318 C   0  0  0  0  0  0  0  0  0  0  0  0
   -9.1316    6.1575  -10.7708 C   0  0  0  0  0  0  0  0  0  0  0  0
   -8.0052    4.0742  -11.7274 C   0  0  0  0  0  0  0  0  0  0  0  0
   -9.1442    4.8834  -17.8365 C   0  0  0  0  0  0  0  0  0  0  0  0
   -6.6897    4.2877  -18.1312 C   0  0  0  0  0  0  0  0  0  0  0  0
   -7.3671    6.7004  -18.0262 C   0  0  0  0  0  0  0  0  0  0  0  0
   -8.6105    6.7539  -12.0785 C   0  0  0  0  0  0  0  0  0  0  0  0
   -8.2440    4.5699  -13.1583 C   0  0  0  0  0  0  0  0  0  0  0  0
   -9.9533    5.5521  -16.7355 C   0  0  0  0  0  0  0  0  0  0  0  0
   -7.7011    5.2183  -15.9738 C   0  0  0  0  0  0  0  0  0  0  0  0
   -5.2520    4.7579  -17.9449 C   0  0  0  0  0  0  0  0  0  0  0  0
   -5.8852    7.0381  -17.8824 C   0  0  0  0  0  0  0  0  0  0  0  0
   -9.0704    4.6090  -10.7483 C   0  0  0  0  0  0  0  0  0  0  0  0
   -7.6900    5.2777  -17.5152 C   0  0  0  0  0  0  0  0  0  0  0  0
   -9.3191    2.3724   -7.6232 C   0  0  0  0  0  0  0  0  0  0  0  0
   -8.8267    3.7247   -7.0064 C   0  0  0  0  0  0  0  0  0  0  0  0
   -8.4987    1.1427   -7.2088 C   0  0  0  0  0  0  0  0  0  0  0  0
  -10.8105    2.0512   -7.3774 C   0  0  0  0  0  0  0  0  0  0  0  0
   -7.3363    3.7483   -6.5987 C   0  0  0  0  0  0  0  0  0  0  0  0
   -9.6499    4.2199   -5.8087 C   0  0  0  0  0  0  0  0  0  0  0  0
   -8.8923    5.8798  -13.2147 N   0  0  0  0  0  0  0  0  0  0  0  0
   -9.0555    5.6242  -15.5892 N   0  0  0  0  0  0  0  0  0  0  0  0
  -10.2196    7.2589  -14.4853 O   0  0  0  0  0  0  0  0  0  0  0  0
   -9.1540    2.5648   -9.0653 O   0  0  0  0  0  0  0  0  0  0  0  0
   -8.9879    4.6868   -8.0984 O   0  0  0  0  0  0  0  0  0  0  0  0
   -5.0716    6.0527  -18.5150 O   0  0  0  0  0  0  0  0  0  0  0  0
   -8.5392    6.5620   -9.9364 H   0  0  0  0  0  0  0  0  0  0  0  0
  -10.1632    6.5010  -10.6100 H   0  0  0  0  0  0  0  0  0  0  0  0
   -8.0049    2.9756  -11.7326 H   0  0  0  0  0  0  0  0  0  0  0  0
   -7.0018    4.3830  -11.4030 H   0  0  0  0  0  0  0  0  0  0  0  0
   -9.2714    3.7955  -17.7731 H   0  0  0  0  0  0  0  0  0  0  0  0
   -9.4652    5.2023  -18.8330 H   0  0  0  0  0  0  0  0  0  0  0  0
   -6.8939    4.2075  -19.2071 H   0  0  0  0  0  0  0  0  0  0  0  0
   -6.8109    3.2850  -17.7054 H   0  0  0  0  0  0  0  0  0  0  0  0
   -7.9659    7.4618  -17.5137 H   0  0  0  0  0  0  0  0  0  0  0  0
   -7.6259    6.7530  -19.0921 H   0  0  0  0  0  0  0  0  0  0  0  0
   -9.0832    7.7247  -12.2787 H   0  0  0  0  0  0  0  0  0  0  0  0
   -7.5304    6.9291  -11.9960 H   0  0  0  0  0  0  0  0  0  0  0  0
   -7.3196    4.5411  -13.7488 H   0  0  0  0  0  0  0  0  0  0  0  0
   -8.9179    3.8657  -13.6784 H   0  0  0  0  0  0  0  0  0  0  0  0
  -10.2466    6.5703  -17.0145 H   0  0  0  0  0  0  0  0  0  0  0  0
  -10.8547    4.9918  -16.4688 H   0  0  0  0  0  0  0  0  0  0  0  0
   -7.5605    4.1843  -15.6419 H   0  0  0  0  0  0  0  0  0  0  0  0
   -6.9542    5.8577  -15.4974 H   0  0  0  0  0  0  0  0  0  0  0  0
   -4.9644    4.7775  -16.8874 H   0  0  0  0  0  0  0  0  0  0  0  0
   -4.5699    4.0725  -18.4578 H   0  0  0  0  0  0  0  0  0  0  0  0
   -5.6789    7.9979  -18.3673 H   0  0  0  0  0  0  0  0  0  0  0  0
   -5.5885    7.1366  -16.8324 H   0  0  0  0  0  0  0  0  0  0  0  0
  -10.0443    4.2771  -11.1573 H   0  0  0  0  0  0  0  0  0  0  0  0
   -8.9170    0.2648   -7.6851 H   0  0  0  0  0  0  0  0  0  0  0  0
   -8.5439    1.0371   -6.1321 H   0  0  0  0  0  0  0  0  0  0  0  0
   -7.4725    1.2825   -7.5249 H   0  0  0  0  0  0  0  0  0  0  0  0
  -11.0560    1.0999   -7.8402 H   0  0  0  0  0  0  0  0  0  0  0  0
  -11.4248    2.8349   -7.8110 H   0  0  0  0  0  0  0  0  0  0  0  0
  -10.9961    1.9938   -6.3088 H   0  0  0  0  0  0  0  0  0  0  0  0
   -7.0908    4.7215   -6.1839 H   0  0  0  0  0  0  0  0  0  0  0  0
   -6.7199    3.5604   -7.4729 H   0  0  0  0  0  0  0  0  0  0  0  0
   -7.1536    2.9795   -5.8536 H   0  0  0  0  0  0  0  0  0  0  0  0
   -9.2315    5.1548   -5.4578 H   0  0  0  0  0  0  0  0  0  0  0  0
   -9.6077    3.4766   -5.0225 H   0  0  0  0  0  0  0  0  0  0  0  0
  -10.6750    4.3678   -6.1246 H   0  0  0  0  0  0  0  0  0  0  0  0
  1 14  1  0  0  0  0
  1 25  1  0  0  0  0
  1 26  1  0  0  0  0
  2 22  1  0  0  0  0
  2 23  1  0  0  0  0
  2 24  2  0  0  0  0
  3  8  1  0  0  0  0
  3 14  1  0  0  0  0
  4  9  1  0  0  0  0
  4 14  1  0  0  0  0
  5 10  1  0  0  0  0
  5 15  1  0  0  0  0
  6 12  1  0  0  0  0
  6 15  1  0  0  0  0
  7 13  1  0  0  0  0
  7 15  1  0  0  0  0
  8 22  1  0  0  0  0
  9 22  1  0  0  0  0
 10 23  1  0  0  0  0
 11 15  1  0  0  0  0
 11 23  1  0  0  0  0
 12 27  1  0  0  0  0
 13 27  1  0  0  0  0
 16 17  1  0  0  0  0
 16 18  1  0  0  0  0
 16 19  1  0  0  0  0
 16 25  1  0  0  0  0
 17 20  1  0  0  0  0
 17 21  1  0  0  0  0
 17 26  1  0  0  0  0
  3 28  1  0  0  0  0
  3 29  1  0  0  0  0
  4 30  1  0  0  0  0
  4 31  1  0  0  0  0
  5 32  1  0  0  0  0
  5 33  1  0  0  0  0
  6 34  1  0  0  0  0
  6 35  1  0  0  0  0
  7 36  1  0  0  0  0
  7 37  1  0  0  0  0
  8 38  1  0  0  0  0
  8 39  1  0  0  0  0
  9 40  1  0  0  0  0
  9 41  1  0  0  0  0
 10 42  1  0  0  0  0
 10 43  1  0  0  0  0
 11 44  1  0  0  0  0
 11 45  1  0  0  0  0
 12 46  1  0  0  0  0
 12 47  1  0  0  0  0
 13 48  1  0  0  0  0
 13 49  1  0  0  0  0
 14 50  1  0  0  0  0
 18 51  1  0  0  0  0
 18 52  1  0  0  0  0
 18 53  1  0  0  0  0
 19 54  1  0  0  0  0
 19 55  1  0  0  0  0
 19 56  1  0  0  0  0
 20 57  1  0  0  0  0
 20 58  1  0  0  0  0
 20 59  1  0  0  0  0
 21 60  1  0  0  0  0
 21 61  1  0  0  0  0
 21 62  1  0  0  0  0
M  END
> <id>
EN300-6735044

> <smiles>
CC1(C)OB(OC1(C)C)C2CCN(CC2)C(=O)N3CCC4(C3)CCOCC4

> <MDLNUMBER>
MFCD32858787

> <IUPAC Name>
2-[4-(4,4,5,5-tetramethyl-1,3,2-dioxaborolan-2-yl)piperidine-1-carbonyl]-8-oxa-2-azaspiro[4.5]decane

> <URL>
https://www.enaminestore.com/catalog/EN300-6735044

> <ROCS_ShapeQuery>
_x0404_0B

> <ROCS_TanimotoCombo>
0.459 

> <ROCS_ShapeTanimoto>
0.392 

> <ROCS_ColorTanimoto>
0.068 

> <ROCS_RefTversky>
0.344 

> <ROCS_RefColorTversky>
0.074 

> <ROCS_RefTverskyCombo>
0.417 

> <ROCS_FitTversky>
1.550 

> <ROCS_FitColorTversky>
0.467 

> <ROCS_FitTverskyCombo>
2.017 

> <ROCS_ColorScore>
-5.318

> <ROCS_Overlap>
2297.872

> <ROCS_Rank>
52                  

$$$$
untitled-dbase-103709_123
  -OEChem-08222312023D

 56 58  0     0  0  0  0  0  0999 V2000
   -8.4788    5.4963  -15.4906 B   0  0  0  0  0  0  0  0  0  0  0  0
   -9.7410    5.0551  -13.2331 C   0  0  0  0  0  0  0  0  0  0  0  0
   -8.7749    5.7573  -13.8481 C   0  0  0  0  0  0  0  0  0  0  0  0
   -9.7690    2.9803   -7.2161 C   0  0  0  0  0  0  0  0  0  0  0  0
   -8.7643    5.7845   -9.6910 C   0  0  0  0  0  0  0  0  0  0  0  0
  -10.0565    5.2202  -11.7762 C   0  0  0  0  0  0  0  0  0  0  0  0
   -7.9373    6.7910  -13.1371 C   0  0  0  0  0  0  0  0  0  0  0  0
   -8.4831    7.1270  -11.7456 C   0  0  0  0  0  0  0  0  0  0  0  0
   -8.4345    2.1668   -9.1257 C   0  0  0  0  0  0  0  0  0  0  0  0
   -9.0568    3.2971   -9.9141 C   0  0  0  0  0  0  0  0  0  0  0  0
   -9.3668    4.4132   -7.6503 C   0  0  0  0  0  0  0  0  0  0  0  0
   -8.7907    4.7973  -17.6477 C   0  0  0  0  0  0  0  0  0  0  0  0
   -7.4131    5.5300  -17.5160 C   0  0  0  0  0  0  0  0  0  0  0  0
   -8.1001    4.7451   -6.8329 C   0  0  0  0  0  0  0  0  0  0  0  0
  -10.5142    5.3567   -7.2377 C   0  0  0  0  0  0  0  0  0  0  0  0
   -8.7003    3.2585  -17.7560 C   0  0  0  0  0  0  0  0  0  0  0  0
   -9.6760    5.2987  -18.7974 C   0  0  0  0  0  0  0  0  0  0  0  0
   -7.3775    6.9578  -18.1062 C   0  0  0  0  0  0  0  0  0  0  0  0
   -6.2177    4.7546  -18.0875 C   0  0  0  0  0  0  0  0  0  0  0  0
   -9.2013    1.9476   -7.9282 N   0  0  0  0  0  0  0  0  0  0  0  0
   -8.9729    5.9232  -11.0746 N   0  0  0  0  0  0  0  0  0  0  0  0
   -9.1138    4.5347   -9.1208 N   0  0  0  0  0  0  0  0  0  0  0  0
  -10.4301    2.7653   -6.1976 O   0  0  0  0  0  0  0  0  0  0  0  0
   -8.2800    6.7103   -9.0308 O   0  0  0  0  0  0  0  0  0  0  0  0
   -9.4696    5.0992  -16.3855 O   0  0  0  0  0  0  0  0  0  0  0  0
   -7.2224    5.6592  -16.0695 O   0  0  0  0  0  0  0  0  0  0  0  0
  -10.3500    4.3432  -13.7768 H   0  0  0  0  0  0  0  0  0  0  0  0
  -10.9830    5.7950  -11.6984 H   0  0  0  0  0  0  0  0  0  0  0  0
  -10.1893    4.2388  -11.3103 H   0  0  0  0  0  0  0  0  0  0  0  0
   -6.8983    6.4422  -13.0238 H   0  0  0  0  0  0  0  0  0  0  0  0
   -7.9007    7.7084  -13.7474 H   0  0  0  0  0  0  0  0  0  0  0  0
   -7.6904    7.5489  -11.1162 H   0  0  0  0  0  0  0  0  0  0  0  0
   -9.2742    7.8799  -11.8217 H   0  0  0  0  0  0  0  0  0  0  0  0
   -8.4430    1.2387   -9.7041 H   0  0  0  0  0  0  0  0  0  0  0  0
   -7.4013    2.3877   -8.8422 H   0  0  0  0  0  0  0  0  0  0  0  0
   -8.4774    3.4595  -10.8262 H   0  0  0  0  0  0  0  0  0  0  0  0
  -10.0803    3.0276  -10.1903 H   0  0  0  0  0  0  0  0  0  0  0  0
   -7.7643    5.7423   -7.0913 H   0  0  0  0  0  0  0  0  0  0  0  0
   -7.3279    4.0229   -7.0694 H   0  0  0  0  0  0  0  0  0  0  0  0
   -8.3387    4.6981   -5.7770 H   0  0  0  0  0  0  0  0  0  0  0  0
  -10.2616    6.3694   -7.5289 H   0  0  0  0  0  0  0  0  0  0  0  0
  -10.6463    5.3043   -6.1634 H   0  0  0  0  0  0  0  0  0  0  0  0
  -11.4246    5.0458   -7.7367 H   0  0  0  0  0  0  0  0  0  0  0  0
   -9.7007    2.8532  -17.8423 H   0  0  0  0  0  0  0  0  0  0  0  0
   -8.2193    2.8716  -16.8664 H   0  0  0  0  0  0  0  0  0  0  0  0
   -8.1194    3.0018  -18.6330 H   0  0  0  0  0  0  0  0  0  0  0  0
  -10.6045    4.7355  -18.8103 H   0  0  0  0  0  0  0  0  0  0  0  0
   -9.1552    5.1612  -19.7405 H   0  0  0  0  0  0  0  0  0  0  0  0
   -9.8929    6.3531  -18.6528 H   0  0  0  0  0  0  0  0  0  0  0  0
   -6.3872    7.3718  -17.9641 H   0  0  0  0  0  0  0  0  0  0  0  0
   -8.1112    7.5676  -17.5942 H   0  0  0  0  0  0  0  0  0  0  0  0
   -7.6099    6.9068  -19.1626 H   0  0  0  0  0  0  0  0  0  0  0  0
   -5.3111    5.3372  -17.9520 H   0  0  0  0  0  0  0  0  0  0  0  0
   -6.3776    4.5734  -19.1463 H   0  0  0  0  0  0  0  0  0  0  0  0
   -6.1206    3.8060  -17.5674 H   0  0  0  0  0  0  0  0  0  0  0  0
   -9.3284    0.9967   -7.5962 H   0  0  0  0  0  0  0  0  0  0  0  0
  1  3  1  0  0  0  0
  1 25  1  0  0  0  0
  1 26  1  0  0  0  0
  2  3  2  0  0  0  0
  2  6  1  0  0  0  0
  3  7  1  0  0  0  0
  4 11  1  0  0  0  0
  4 20  1  0  0  0  0
  4 23  2  0  0  0  0
  5 21  1  0  0  0  0
  5 22  1  0  0  0  0
  5 24  2  0  0  0  0
  6 21  1  0  0  0  0
  7  8  1  0  0  0  0
  8 21  1  0  0  0  0
  9 10  1  0  0  0  0
  9 20  1  0  0  0  0
 10 22  1  0  0  0  0
 11 14  1  0  0  0  0
 11 15  1  0  0  0  0
 11 22  1  0  0  0  0
 12 13  1  0  0  0  0
 12 16  1  0  0  0  0
 12 17  1  0  0  0  0
 12 25  1  0  0  0  0
 13 18  1  0  0  0  0
 13 19  1  0  0  0  0
 13 26  1  0  0  0  0
  2 27  1  0  0  0  0
  6 28  1  0  0  0  0
  6 29  1  0  0  0  0
  7 30  1  0  0  0  0
  7 31  1  0  0  0  0
  8 32  1  0  0  0  0
  8 33  1  0  0  0  0
  9 34  1  0  0  0  0
  9 35  1  0  0  0  0
 10 36  1  0  0  0  0
 10 37  1  0  0  0  0
 14 38  1  0  0  0  0
 14 39  1  0  0  0  0
 14 40  1  0  0  0  0
 15 41  1  0  0  0  0
 15 42  1  0  0  0  0
 15 43  1  0  0  0  0
 16 44  1  0  0  0  0
 16 45  1  0  0  0  0
 16 46  1  0  0  0  0
 17 47  1  0  0  0  0
 17 48  1  0  0  0  0
 17 49  1  0  0  0  0
 18 50  1  0  0  0  0
 18 51  1  0  0  0  0
 18 52  1  0  0  0  0
 19 53  1  0  0  0  0
 19 54  1  0  0  0  0
 19 55  1  0  0  0  0
 20 56  1  0  0  0  0
M  END
> <id>
EN300-6735361

> <smiles>
CC1(C)OB(OC1(C)C)C2=CCN(CC2)C(=O)N3CCNC(=O)C3(C)C

> <MDLNUMBER>
MFCD32858440

> <IUPAC Name>
3,3-dimethyl-4-[4-(tetramethyl-1,3,2-dioxaborolan-2-yl)-1,2,3,6-tetrahydropyridine-1-carbonyl]piperazin-2-one

> <URL>
https://www.enaminestore.com/catalog/EN300-6735361

> <ROCS_ShapeQuery>
_x0404_0B

> <ROCS_TanimotoCombo>
0.459 

> <ROCS_ShapeTanimoto>
0.398 

> <ROCS_ColorTanimoto>
0.061 

> <ROCS_RefTversky>
0.346 

> <ROCS_RefColorTversky>
0.067 

> <ROCS_RefTverskyCombo>
0.414 

> <ROCS_FitTversky>
1.606 

> <ROCS_FitColorTversky>
0.394 

> <ROCS_FitTverskyCombo>
2.000 

> <ROCS_ColorScore>
-4.856

> <ROCS_Overlap>
2314.517

> <ROCS_Rank>
53                  

$$$$
untitled-dbase-172029_340
  -OEChem-08222312023D

 48 51  0     1  0  0  0  0  0999 V2000
  -10.5144    4.4513  -14.4380 C   0  0  0  0  0  0  0  0  0  0  0  0
  -10.7534    4.0789  -15.6996 C   0  0  0  0  0  0  0  0  0  0  0  0
   -7.9342    4.9878  -18.6881 C   0  0  0  0  0  0  0  0  0  0  0  0
   -8.4207    5.4425  -15.0377 C   0  0  0  0  0  0  0  0  0  0  0  0
   -9.3082    5.1618  -14.0679 C   0  0  0  0  0  0  0  0  0  0  0  0
   -9.0761    4.3339  -18.9422 C   0  0  0  0  0  0  0  0  0  0  0  0
   -9.7621    4.3958  -16.7647 C   0  0  0  0  0  0  0  0  0  0  0  0
   -7.6289    5.4194  -17.3048 C   0  0  0  0  0  0  0  0  0  0  0  0
   -9.3249    3.7712   -9.2158 C   0  0  0  0  0  0  0  0  0  0  0  0
   -8.1660    6.6748  -11.0156 C   0  0  0  0  0  0  0  0  0  0  0  0
  -10.2149    5.8061  -11.8132 C   0  0  0  0  0  0  0  0  0  0  0  0
   -7.7676    4.3417  -11.1453 C   0  0  0  0  0  0  0  0  0  0  0  0
   -9.4086    5.9425  -10.5027 C   0  0  1  0  0  0  0  0  0  0  0  0
   -7.8542    5.5813  -12.0536 C   0  0  1  0  0  0  0  0  0  0  0  0
   -7.7145    3.8405   -7.1517 C   0  0  0  0  0  0  0  0  0  0  0  0
   -9.2632    5.4862   -6.0553 C   0  0  0  0  0  0  0  0  0  0  0  0
   -9.9070    3.0624   -6.1915 C   0  0  0  0  0  0  0  0  0  0  0  0
   -9.1737    4.2085   -6.8868 C   0  0  0  0  0  0  0  0  0  0  0  0
  -10.0095    4.0266  -17.9859 N   0  0  0  0  0  0  0  0  0  0  0  0
   -8.6096    5.0832  -16.3678 N   0  0  0  0  0  0  0  0  0  0  0  0
   -9.1390    5.5046  -12.7676 N   0  0  3  0  0  0  0  0  0  0  0  0
   -8.8525    4.6163  -10.1971 N   0  0  0  0  0  0  0  0  0  0  0  0
   -6.5785    6.0187  -17.0848 O   0  0  0  0  0  0  0  0  0  0  0  0
   -9.3111    2.5452   -9.2929 O   0  0  0  0  0  0  0  0  0  0  0  0
   -9.3402    3.9409  -20.2414 O   0  0  0  0  0  0  0  0  0  0  0  0
   -9.8140    4.4646   -8.1417 O   0  0  0  0  0  0  0  0  0  0  0  0
  -11.2393    4.2190  -13.6639 H   0  0  0  0  0  0  0  0  0  0  0  0
  -11.6573    3.5476  -15.9737 H   0  0  0  0  0  0  0  0  0  0  0  0
   -7.2153    5.2166  -19.4664 H   0  0  0  0  0  0  0  0  0  0  0  0
   -7.5029    5.9736  -14.8046 H   0  0  0  0  0  0  0  0  0  0  0  0
   -8.3843    7.6486  -11.4670 H   0  0  0  0  0  0  0  0  0  0  0  0
   -7.3862    6.7856  -10.2544 H   0  0  0  0  0  0  0  0  0  0  0  0
  -10.9587    5.0038  -11.7613 H   0  0  0  0  0  0  0  0  0  0  0  0
  -10.7054    6.7492  -12.0780 H   0  0  0  0  0  0  0  0  0  0  0  0
   -7.9358    3.3930  -11.6640 H   0  0  0  0  0  0  0  0  0  0  0  0
   -6.8262    4.2967  -10.5881 H   0  0  0  0  0  0  0  0  0  0  0  0
   -9.9486    6.3950   -9.6695 H   0  0  0  0  0  0  0  0  0  0  0  0
   -6.9819    5.7683  -12.6840 H   0  0  0  0  0  0  0  0  0  0  0  0
   -7.6459    2.9238   -7.7483 H   0  0  0  0  0  0  0  0  0  0  0  0
   -7.1865    4.6403   -7.6811 H   0  0  0  0  0  0  0  0  0  0  0  0
   -7.1855    3.6388   -6.2132 H   0  0  0  0  0  0  0  0  0  0  0  0
  -10.3085    5.7540   -5.8628 H   0  0  0  0  0  0  0  0  0  0  0  0
   -8.8215    6.3333   -6.5925 H   0  0  0  0  0  0  0  0  0  0  0  0
   -8.7501    5.3796   -5.0941 H   0  0  0  0  0  0  0  0  0  0  0  0
  -10.9537    3.3260   -6.0014 H   0  0  0  0  0  0  0  0  0  0  0  0
   -9.8847    2.1466   -6.7911 H   0  0  0  0  0  0  0  0  0  0  0  0
   -9.4593    2.8495   -5.2140 H   0  0  0  0  0  0  0  0  0  0  0  0
  -10.1867    3.4860  -20.2764 H   0  0  0  0  0  0  0  0  0  0  0  0
  1  2  2  0  0  0  0
  1  5  1  0  0  0  0
  2  7  1  0  0  0  0
  3  6  2  0  0  0  0
  3  8  1  0  0  0  0
  4  5  2  0  0  0  0
  4 20  1  0  0  0  0
  5 21  1  0  0  0  0
  6 19  1  0  0  0  0
  6 25  1  0  0  0  0
  7 19  2  0  0  0  0
  7 20  1  0  0  0  0
  8 20  1  0  0  0  0
  8 23  2  0  0  0  0
  9 22  1  0  0  0  0
  9 24  2  0  0  0  0
  9 26  1  0  0  0  0
 10 13  1  0  0  0  0
 10 14  1  0  0  0  0
 11 13  1  6  0  0  0
 11 21  1  0  0  0  0
 12 14  1  6  0  0  0
 12 22  1  0  0  0  0
 13 22  1  0  0  0  0
 14 21  1  0  0  0  0
 15 18  1  0  0  0  0
 16 18  1  0  0  0  0
 17 18  1  0  0  0  0
 18 26  1  0  0  0  0
  1 27  1  0  0  0  0
  2 28  1  0  0  0  0
  3 29  1  0  0  0  0
  4 30  1  0  0  0  0
 10 31  1  0  0  0  0
 10 32  1  0  0  0  0
 11 33  1  0  0  0  0
 11 34  1  0  0  0  0
 12 35  1  0  0  0  0
 12 36  1  0  0  0  0
 13 37  1  0  0  0  0
 14 38  1  0  0  0  0
 15 39  1  0  0  0  0
 15 40  1  0  0  0  0
 15 41  1  0  0  0  0
 16 42  1  0  0  0  0
 16 43  1  0  0  0  0
 16 44  1  0  0  0  0
 17 45  1  0  0  0  0
 17 46  1  0  0  0  0
 17 47  1  0  0  0  0
 25 48  1  0  0  0  0
M  END
> <id>
EN300-6740109

> <smiles>
CC(C)(C)OC(=O)N1C[C@@H]2C[C@H]1CN2C=3C=CC4=NC(O)=CC(=O)N4C3

> <MDLNUMBER>
MFCD32703220

> <IUPAC Name>
tert-butyl (1S,4S)-5-{2-hydroxy-4-oxo-4H-pyrido[1,2-a]pyrimidin-7-yl}-2,5-diazabicyclo[2.2.1]heptane-2-carboxylate

> <CAS>
2460739-96-0

> <URL>
https://www.enaminestore.com/catalog/EN300-6740109

> <ROCS_ShapeQuery>
_x0404_0B

> <ROCS_TanimotoCombo>
0.459 

> <ROCS_ShapeTanimoto>
0.385 

> <ROCS_ColorTanimoto>
0.073 

> <ROCS_RefTversky>
0.341 

> <ROCS_RefColorTversky>
0.085 

> <ROCS_RefTverskyCombo>
0.426 

> <ROCS_FitTversky>
1.511 

> <ROCS_FitColorTversky>
0.352 

> <ROCS_FitTverskyCombo>
1.862 

> <ROCS_ColorScore>
-6.148

> <ROCS_Overlap>
2278.789

> <ROCS_Rank>
54                  

$$$$
untitled-dbase-152226_1991
  -OEChem-08222312023D

 53 53  0     0  0  0  0  0  0999 V2000
   -8.6085    5.1849   -9.2987 C   0  0  0  0  0  0  0  0  0  0  0  0
   -8.6678    5.9149  -14.5250 C   0  0  0  0  0  0  0  0  0  0  0  0
   -8.5951    6.7693  -11.2087 C   0  0  0  0  0  0  0  0  0  0  0  0
   -9.6163    6.4455  -12.2952 C   0  0  0  0  0  0  0  0  0  0  0  0
   -7.1278    4.7594  -11.2880 C   0  0  0  0  0  0  0  0  0  0  0  0
   -9.0848    4.0691  -12.8559 C   0  0  0  0  0  0  0  0  0  0  0  0
   -7.7922    3.6511  -12.1234 C   0  0  0  0  0  0  0  0  0  0  0  0
  -10.5595    3.7611   -7.7649 C   0  0  0  0  0  0  0  0  0  0  0  0
   -8.9659    1.8230   -7.8800 C   0  0  0  0  0  0  0  0  0  0  0  0
   -8.2708    3.9472   -6.7344 C   0  0  0  0  0  0  0  0  0  0  0  0
   -7.5939    6.3081  -17.1486 C   0  0  0  0  0  0  0  0  0  0  0  0
   -7.8616    3.8263  -17.4283 C   0  0  0  0  0  0  0  0  0  0  0  0
   -9.8825    5.2664  -17.0409 C   0  0  0  0  0  0  0  0  0  0  0  0
   -6.7608    3.0611  -13.0901 C   0  0  0  0  0  0  0  0  0  0  0  0
   -9.0933    3.3448   -7.8726 C   0  0  0  0  0  0  0  0  0  0  0  0
   -8.3977    5.0765  -16.7342 C   0  0  0  0  0  0  0  0  0  0  0  0
   -8.0893    5.5713  -10.5391 N   0  0  0  0  0  0  0  0  0  0  0  0
   -9.1223    5.4750  -13.2764 N   0  0  0  0  0  0  0  0  0  0  0  0
   -9.0558    5.9653   -8.4604 O   0  0  0  0  0  0  0  0  0  0  0  0
   -8.6479    7.0921  -14.8798 O   0  0  0  0  0  0  0  0  0  0  0  0
   -7.3874    2.0387  -13.8395 O   0  0  0  0  0  0  0  0  0  0  0  0
   -8.5727    3.8274   -9.1163 O   0  0  0  0  0  0  0  0  0  0  0  0
   -8.2444    4.8858  -15.3233 O   0  0  0  0  0  0  0  0  0  0  0  0
   -7.7409    7.2847  -11.6446 H   0  0  0  0  0  0  0  0  0  0  0  0
   -9.0477    7.4341  -10.4763 H   0  0  0  0  0  0  0  0  0  0  0  0
  -10.5309    6.0567  -11.8296 H   0  0  0  0  0  0  0  0  0  0  0  0
   -9.9100    7.3585  -12.8300 H   0  0  0  0  0  0  0  0  0  0  0  0
   -6.4231    4.3065  -10.5705 H   0  0  0  0  0  0  0  0  0  0  0  0
   -6.5172    5.4268  -11.9209 H   0  0  0  0  0  0  0  0  0  0  0  0
   -9.2478    3.4454  -13.7508 H   0  0  0  0  0  0  0  0  0  0  0  0
   -9.9457    3.8758  -12.1948 H   0  0  0  0  0  0  0  0  0  0  0  0
   -8.0592    2.8170  -11.4181 H   0  0  0  0  0  0  0  0  0  0  0  0
  -10.6552    4.8528   -7.7592 H   0  0  0  0  0  0  0  0  0  0  0  0
  -11.1535    3.3643   -8.5946 H   0  0  0  0  0  0  0  0  0  0  0  0
  -10.9984    3.4075   -6.8249 H   0  0  0  0  0  0  0  0  0  0  0  0
   -7.9155    1.5198   -7.9572 H   0  0  0  0  0  0  0  0  0  0  0  0
   -9.4760    1.3929   -8.7496 H   0  0  0  0  0  0  0  0  0  0  0  0
   -9.3897    1.3776   -6.9741 H   0  0  0  0  0  0  0  0  0  0  0  0
   -7.2190    3.6488   -6.8115 H   0  0  0  0  0  0  0  0  0  0  0  0
   -8.3206    5.0409   -6.7359 H   0  0  0  0  0  0  0  0  0  0  0  0
   -8.6250    3.5838   -5.7630 H   0  0  0  0  0  0  0  0  0  0  0  0
   -7.9757    7.2076  -16.6525 H   0  0  0  0  0  0  0  0  0  0  0  0
   -6.5327    6.1989  -16.9021 H   0  0  0  0  0  0  0  0  0  0  0  0
   -7.6822    6.4883  -18.2261 H   0  0  0  0  0  0  0  0  0  0  0  0
   -8.4354    2.9402  -17.1339 H   0  0  0  0  0  0  0  0  0  0  0  0
   -6.8231    3.6327  -17.1361 H   0  0  0  0  0  0  0  0  0  0  0  0
   -7.9034    3.9200  -18.5183 H   0  0  0  0  0  0  0  0  0  0  0  0
  -10.4593    4.3831  -16.7438 H   0  0  0  0  0  0  0  0  0  0  0  0
  -10.2934    6.1382  -16.5215 H   0  0  0  0  0  0  0  0  0  0  0  0
  -10.0448    5.3939  -18.1173 H   0  0  0  0  0  0  0  0  0  0  0  0
   -5.9291    2.6424  -12.5272 H   0  0  0  0  0  0  0  0  0  0  0  0
   -6.4023    3.8379  -13.7622 H   0  0  0  0  0  0  0  0  0  0  0  0
   -6.7189    1.6765  -14.4465 H   0  0  0  0  0  0  0  0  0  0  0  0
  1 17  1  0  0  0  0
  1 19  2  0  0  0  0
  1 22  1  0  0  0  0
  2 18  1  0  0  0  0
  2 20  2  0  0  0  0
  2 23  1  0  0  0  0
  3  4  1  0  0  0  0
  3 17  1  0  0  0  0
  4 18  1  0  0  0  0
  5  7  1  0  0  0  0
  5 17  1  0  0  0  0
  6  7  1  0  0  0  0
  6 18  1  0  0  0  0
  7 14  1  0  0  0  0
  8 15  1  0  0  0  0
  9 15  1  0  0  0  0
 10 15  1  0  0  0  0
 11 16  1  0  0  0  0
 12 16  1  0  0  0  0
 13 16  1  0  0  0  0
 14 21  1  0  0  0  0
 15 22  1  0  0  0  0
 16 23  1  0  0  0  0
  3 24  1  0  0  0  0
  3 25  1  0  0  0  0
  4 26  1  0  0  0  0
  4 27  1  0  0  0  0
  5 28  1  0  0  0  0
  5 29  1  0  0  0  0
  6 30  1  0  0  0  0
  6 31  1  0  0  0  0
  7 32  1  0  0  0  0
  8 33  1  0  0  0  0
  8 34  1  0  0  0  0
  8 35  1  0  0  0  0
  9 36  1  0  0  0  0
  9 37  1  0  0  0  0
  9 38  1  0  0  0  0
 10 39  1  0  0  0  0
 10 40  1  0  0  0  0
 10 41  1  0  0  0  0
 11 42  1  0  0  0  0
 11 43  1  0  0  0  0
 11 44  1  0  0  0  0
 12 45  1  0  0  0  0
 12 46  1  0  0  0  0
 12 47  1  0  0  0  0
 13 48  1  0  0  0  0
 13 49  1  0  0  0  0
 13 50  1  0  0  0  0
 14 51  1  0  0  0  0
 14 52  1  0  0  0  0
 21 53  1  0  0  0  0
M  END
> <id>
EN300-27782979

> <smiles>
CC(C)(C)OC(=O)N1CCN(CC(CO)C1)C(=O)OC(C)(C)C

> <IUPAC Name>
1,4-di-tert-butyl 6-(hydroxymethyl)-1,4-diazepane-1,4-dicarboxylate

> <CAS>
2680708-12-5

> <URL>
https://www.enaminestore.com/catalog/EN300-27782979

> <ROCS_ShapeQuery>
_x0404_0B

> <ROCS_TanimotoCombo>
0.458 

> <ROCS_ShapeTanimoto>
0.339 

> <ROCS_ColorTanimoto>
0.119 

> <ROCS_RefTversky>
0.302 

> <ROCS_RefColorTversky>
0.122 

> <ROCS_RefTverskyCombo>
0.424 

> <ROCS_FitTversky>
1.560 

> <ROCS_FitColorTversky>
0.844 

> <ROCS_FitTverskyCombo>
2.404 

> <ROCS_ColorScore>
-8.801

> <ROCS_Overlap>
2017.741

> <ROCS_Rank>
55                  

$$$$
untitled-dbase-174588_0
  -OEChem-08222312023D

 37 40  0     1  0  0  0  0  0999 V2000
   -8.5393    3.8821   -6.9237 C   0  0  0  0  0  0  0  0  0  0  0  0
   -8.4286    3.8051   -8.1168 C   0  0  0  0  0  0  0  0  0  0  0  0
   -9.1148    7.1389  -10.7226 C   0  0  0  0  0  0  0  0  0  0  0  0
   -7.9276    2.4743  -10.0627 C   0  0  0  0  0  0  0  0  0  0  0  0
   -8.8930    6.0560   -9.8747 C   0  0  0  0  0  0  0  0  0  0  0  0
   -8.9703    6.9880  -12.0986 C   0  0  0  0  0  0  0  0  0  0  0  0
   -7.7799    2.3106  -11.4369 C   0  0  0  0  0  0  0  0  0  0  0  0
   -8.2967    3.7132   -9.5433 C   0  0  0  0  0  0  0  0  0  0  0  0
   -8.5228    4.8061  -10.3935 C   0  0  0  0  0  0  0  0  0  0  0  0
   -8.3749    4.6456  -11.7942 C   0  0  0  0  0  0  0  0  0  0  0  0
   -8.6023    5.7463  -12.6322 C   0  0  0  0  0  0  0  0  0  0  0  0
   -8.0032    3.3917  -12.2989 C   0  0  0  0  0  0  0  0  0  0  0  0
   -8.4540    5.6025  -14.0976 C   0  0  0  0  0  0  0  0  0  0  0  0
   -7.8440    3.2006  -13.7573 C   0  0  0  0  0  0  0  0  0  0  0  0
   -8.0952    5.1557  -18.7177 C   0  0  0  0  0  0  0  0  0  0  0  0
   -6.9096    5.0177  -16.5107 C   0  0  0  0  0  0  0  0  0  0  0  0
   -9.2125    4.3032  -18.1652 C   0  0  0  0  0  0  0  0  0  0  0  0
   -9.3536    4.4770  -16.6640 C   0  0  0  0  0  0  0  0  0  0  0  0
   -8.0333    4.1391  -15.9904 C   0  0  2  0  0  0  0  0  0  0  0  0
   -7.0496    5.4200  -17.8385 N   0  0  0  0  0  0  0  0  0  0  0  0
   -8.1132    4.3206  -14.5654 N   0  0  0  0  0  0  0  0  0  0  0  0
   -8.6259    6.5865  -14.8138 O   0  0  0  0  0  0  0  0  0  0  0  0
   -7.4882    2.1044  -14.1849 O   0  0  0  0  0  0  0  0  0  0  0  0
   -8.0992    5.5398  -19.8871 O   0  0  0  0  0  0  0  0  0  0  0  0
   -5.9133    5.2921  -15.8419 O   0  0  0  0  0  0  0  0  0  0  0  0
   -8.6376    3.9509   -5.8655 H   0  0  0  0  0  0  0  0  0  0  0  0
   -9.4010    8.1018  -10.3092 H   0  0  0  0  0  0  0  0  0  0  0  0
   -7.7503    1.6226   -9.4097 H   0  0  0  0  0  0  0  0  0  0  0  0
   -9.0177    6.2220   -8.8072 H   0  0  0  0  0  0  0  0  0  0  0  0
   -9.1496    7.8484  -12.7376 H   0  0  0  0  0  0  0  0  0  0  0  0
   -7.4921    1.3339  -11.8167 H   0  0  0  0  0  0  0  0  0  0  0  0
  -10.1469    4.5925  -18.6583 H   0  0  0  0  0  0  0  0  0  0  0  0
   -9.0009    3.2586  -18.4195 H   0  0  0  0  0  0  0  0  0  0  0  0
   -9.6418    5.5134  -16.4433 H   0  0  0  0  0  0  0  0  0  0  0  0
  -10.1521    3.8247  -16.2920 H   0  0  0  0  0  0  0  0  0  0  0  0
   -7.7598    3.0935  -16.1807 H   0  0  0  0  0  0  0  0  0  0  0  0
   -6.2882    5.9795  -18.2131 H   0  0  0  0  0  0  0  0  0  0  0  0
  1  2  3  0  0  0  0
  2  8  1  0  0  0  0
  3  5  2  0  0  0  0
  3  6  1  0  0  0  0
  4  7  2  0  0  0  0
  4  8  1  0  0  0  0
  5  9  1  0  0  0  0
  6 11  2  0  0  0  0
  7 12  1  0  0  0  0
  8  9  2  0  0  0  0
  9 10  1  0  0  0  0
 10 11  1  0  0  0  0
 10 12  2  0  0  0  0
 11 13  1  0  0  0  0
 12 14  1  0  0  0  0
 13 21  1  0  0  0  0
 13 22  2  0  0  0  0
 14 21  1  0  0  0  0
 14 23  2  0  0  0  0
 15 17  1  0  0  0  0
 15 20  1  0  0  0  0
 15 24  2  0  0  0  0
 16 19  1  0  0  0  0
 16 20  1  0  0  0  0
 16 25  2  0  0  0  0
 17 18  1  0  0  0  0
 18 19  1  0  0  0  0
 19 21  1  0  0  0  0
  1 26  1  0  0  0  0
  3 27  1  0  0  0  0
  4 28  1  0  0  0  0
  5 29  1  0  0  0  0
  6 30  1  0  0  0  0
  7 31  1  0  0  0  0
 17 32  1  0  0  0  0
 17 33  1  0  0  0  0
 18 34  1  0  0  0  0
 18 35  1  0  0  0  0
 19 36  1  0  0  0  0
 20 37  1  0  0  0  0
M  END
> <id>
EN300-43346117

> <smiles>
O=C1CCC(N2C(=O)C=3C=CC=C4C(C#C)=CC=C(C2=O)C34)C(=O)N1

> <IUPAC Name>
3-(2,6-dioxopiperidin-3-yl)-8-ethynyl-3-azatricyclo[7.3.1.0,5,13]trideca-1(13),5,7,9,11-pentaene-2,4-dione

> <URL>
https://www.enaminestore.com/catalog/EN300-43346117

> <ROCS_ShapeQuery>
_x0404_0B

> <ROCS_TanimotoCombo>
0.458 

> <ROCS_ShapeTanimoto>
0.374 

> <ROCS_ColorTanimoto>
0.083 

> <ROCS_RefTversky>
0.332 

> <ROCS_RefColorTversky>
0.091 

> <ROCS_RefTverskyCombo>
0.424 

> <ROCS_FitTversky>
1.508 

> <ROCS_FitColorTversky>
0.495 

> <ROCS_FitTverskyCombo>
2.003 

> <ROCS_ColorScore>
-6.584

> <ROCS_Overlap>
2222.562

> <ROCS_Rank>
56                  

$$$$
untitled-dbase-118900_315
  -OEChem-08222312023D

 59 62  0     1  0  0  0  0  0999 V2000
   -9.1252    4.0107   -9.2225 B   0  0  0  0  0  0  0  0  0  0  0  0
   -8.6262    4.9460  -14.2033 C   0  0  0  0  0  0  0  0  0  0  0  0
   -9.4959    4.0276  -18.3337 C   0  0  0  0  0  0  0  0  0  0  0  0
   -9.9811    4.5615  -16.9748 C   0  0  0  0  0  0  0  0  0  0  0  0
   -8.1451    4.6944  -18.6095 C   0  0  0  0  0  0  0  0  0  0  0  0
   -6.6909    7.3965  -15.1613 C   0  0  0  0  0  0  0  0  0  0  0  0
   -8.7171    6.2430  -10.6634 C   0  0  0  0  0  0  0  0  0  0  0  0
   -8.2165    7.3256  -15.0370 C   0  0  0  0  0  0  0  0  0  0  0  0
   -8.6298    6.5491  -12.1581 C   0  0  0  0  0  0  0  0  0  0  0  0
   -8.6474    4.1761  -11.8620 C   0  0  0  0  0  0  0  0  0  0  0  0
   -6.0044    6.3581  -16.0591 C   0  0  0  0  0  0  0  0  0  0  0  0
   -9.2448    4.8098  -10.6068 C   0  0  1  0  0  0  0  0  0  0  0  0
   -8.9258    5.5985  -16.5840 C   0  0  2  0  0  0  0  0  0  0  0  0
   -7.6394    5.1000  -17.2298 C   0  0  2  0  0  0  0  0  0  0  0  0
   -9.1397    2.2672   -7.7404 C   0  0  0  0  0  0  0  0  0  0  0  0
   -8.7993    3.6012   -6.9948 C   0  0  0  0  0  0  0  0  0  0  0  0
   -8.1655    1.1129   -7.4655 C   0  0  0  0  0  0  0  0  0  0  0  0
  -10.5742    1.7413   -7.5086 C   0  0  0  0  0  0  0  0  0  0  0  0
   -7.3126    3.7678   -6.6072 C   0  0  0  0  0  0  0  0  0  0  0  0
   -9.6450    3.8686   -5.7416 C   0  0  0  0  0  0  0  0  0  0  0  0
   -8.5868    5.2604  -12.8460 N   0  0  0  0  0  0  0  0  0  0  0  0
   -8.7435    5.9619  -15.1713 N   0  0  0  0  0  0  0  0  0  0  0  0
   -8.5740    3.7535  -14.5434 O   0  0  0  0  0  0  0  0  0  0  0  0
   -9.0369    2.6219   -9.1573 O   0  0  0  0  0  0  0  0  0  0  0  0
   -9.1046    4.6405   -7.9801 O   0  0  0  0  0  0  0  0  0  0  0  0
   -6.6599    6.1289  -17.3079 O   0  0  0  0  0  0  0  0  0  0  0  0
   -9.3882    2.9377  -18.2899 H   0  0  0  0  0  0  0  0  0  0  0  0
  -10.2111    4.2537  -19.1319 H   0  0  0  0  0  0  0  0  0  0  0  0
  -10.9759    4.9891  -17.0560 H   0  0  0  0  0  0  0  0  0  0  0  0
  -10.0093    3.7367  -16.2639 H   0  0  0  0  0  0  0  0  0  0  0  0
   -7.4536    4.0243  -19.1217 H   0  0  0  0  0  0  0  0  0  0  0  0
   -8.2814    5.5704  -19.2499 H   0  0  0  0  0  0  0  0  0  0  0  0
   -6.3921    8.4217  -15.4784 H   0  0  0  0  0  0  0  0  0  0  0  0
   -6.2623    7.2801  -14.1414 H   0  0  0  0  0  0  0  0  0  0  0  0
   -7.7148    6.3177  -10.2104 H   0  0  0  0  0  0  0  0  0  0  0  0
   -9.3686    6.9598  -10.1411 H   0  0  0  0  0  0  0  0  0  0  0  0
   -8.5667    7.7433  -14.0912 H   0  0  0  0  0  0  0  0  0  0  0  0
   -8.6061    7.9365  -15.8512 H   0  0  0  0  0  0  0  0  0  0  0  0
   -9.5414    7.0805  -12.4713 H   0  0  0  0  0  0  0  0  0  0  0  0
   -7.7551    7.1678  -12.4117 H   0  0  0  0  0  0  0  0  0  0  0  0
   -7.6262    3.8078  -11.7048 H   0  0  0  0  0  0  0  0  0  0  0  0
   -9.2506    3.3550  -12.2644 H   0  0  0  0  0  0  0  0  0  0  0  0
   -4.9954    6.7213  -16.3006 H   0  0  0  0  0  0  0  0  0  0  0  0
   -5.8679    5.4021  -15.5305 H   0  0  0  0  0  0  0  0  0  0  0  0
  -10.3299    4.8750  -10.7784 H   0  0  0  0  0  0  0  0  0  0  0  0
   -9.1667    6.5935  -17.0953 H   0  0  0  0  0  0  0  0  0  0  0  0
   -7.2439    4.2032  -16.7154 H   0  0  0  0  0  0  0  0  0  0  0  0
   -8.4863    0.2422   -8.0236 H   0  0  0  0  0  0  0  0  0  0  0  0
   -8.1695    0.8953   -6.4048 H   0  0  0  0  0  0  0  0  0  0  0  0
   -7.1725    1.4093   -7.7795 H   0  0  0  0  0  0  0  0  0  0  0  0
  -10.7143    0.8180   -8.0631 H   0  0  0  0  0  0  0  0  0  0  0  0
  -11.2902    2.4826   -7.8511 H   0  0  0  0  0  0  0  0  0  0  0  0
  -10.7235    1.5546   -6.4491 H   0  0  0  0  0  0  0  0  0  0  0  0
   -7.1764    4.7174   -6.0981 H   0  0  0  0  0  0  0  0  0  0  0  0
   -6.7010    3.7460   -7.5044 H   0  0  0  0  0  0  0  0  0  0  0  0
   -7.0186    2.9567   -5.9474 H   0  0  0  0  0  0  0  0  0  0  0  0
   -9.3342    4.8082   -5.3024 H   0  0  0  0  0  0  0  0  0  0  0  0
   -9.4923    3.0613   -5.0365 H   0  0  0  0  0  0  0  0  0  0  0  0
  -10.6884    3.9197   -6.0267 H   0  0  0  0  0  0  0  0  0  0  0  0
  1 12  1  0  0  0  0
  1 24  1  0  0  0  0
  1 25  1  0  0  0  0
  2 21  1  0  0  0  0
  2 22  1  0  0  0  0
  2 23  2  0  0  0  0
  3  4  1  0  0  0  0
  3  5  1  0  0  0  0
  4 13  1  1  0  0  0
  5 14  1  6  0  0  0
  6  8  1  0  0  0  0
  6 11  1  0  0  0  0
  7  9  1  0  0  0  0
  7 12  1  0  0  0  0
  8 22  1  0  0  0  0
  9 21  1  0  0  0  0
 10 12  1  0  0  0  0
 10 21  1  0  0  0  0
 11 26  1  0  0  0  0
 13 14  1  0  0  0  0
 13 22  1  0  0  0  0
 14 26  1  0  0  0  0
 15 16  1  0  0  0  0
 15 17  1  0  0  0  0
 15 18  1  0  0  0  0
 15 24  1  0  0  0  0
 16 19  1  0  0  0  0
 16 20  1  0  0  0  0
 16 25  1  0  0  0  0
  3 27  1  0  0  0  0
  3 28  1  0  0  0  0
  4 29  1  0  0  0  0
  4 30  1  0  0  0  0
  5 31  1  0  0  0  0
  5 32  1  0  0  0  0
  6 33  1  0  0  0  0
  6 34  1  0  0  0  0
  7 35  1  0  0  0  0
  7 36  1  0  0  0  0
  8 37  1  0  0  0  0
  8 38  1  0  0  0  0
  9 39  1  0  0  0  0
  9 40  1  0  0  0  0
 10 41  1  0  0  0  0
 10 42  1  0  0  0  0
 11 43  1  0  0  0  0
 11 44  1  0  0  0  0
 12 45  1  0  0  0  0
 13 46  1  0  0  0  0
 14 47  1  0  0  0  0
 17 48  1  0  0  0  0
 17 49  1  0  0  0  0
 17 50  1  0  0  0  0
 18 51  1  0  0  0  0
 18 52  1  0  0  0  0
 18 53  1  0  0  0  0
 19 54  1  0  0  0  0
 19 55  1  0  0  0  0
 19 56  1  0  0  0  0
 20 57  1  0  0  0  0
 20 58  1  0  0  0  0
 20 59  1  0  0  0  0
M  END
> <id>
EN300-6735732

> <smiles>
CC1(C)OB(OC1(C)C)C2CCN(C2)C(=O)N3CCCO[C@@H]4CCC[C@H]43

> <IUPAC Name>
1-[(5aR,8aR)-octahydro-2H-cyclopenta[b][1,4]oxazepine-5-carbonyl]-3-(tetramethyl-1,3,2-dioxaborolan-2-yl)pyrrolidine

> <URL>
https://www.enaminestore.com/catalog/EN300-6735732

> <ROCS_ShapeQuery>
_x0404_0B

> <ROCS_TanimotoCombo>
0.458 

> <ROCS_ShapeTanimoto>
0.395 

> <ROCS_ColorTanimoto>
0.063 

> <ROCS_RefTversky>
0.344 

> <ROCS_RefColorTversky>
0.069 

> <ROCS_RefTverskyCombo>
0.413 

> <ROCS_FitTversky>
1.590 

> <ROCS_FitColorTversky>
0.435 

> <ROCS_FitTverskyCombo>
2.025 

> <ROCS_ColorScore>
-4.958

> <ROCS_Overlap>
2300.183

> <ROCS_Rank>
57                  

$$$$
untitled-dbase-103716_108
  -OEChem-08222312023D

 62 65  0     1  0  0  0  0  0999 V2000
   -8.6167    4.1698   -9.5691 B   0  0  0  0  0  0  0  0  0  0  0  0
   -8.6220    5.7167  -14.6487 C   0  0  0  0  0  0  0  0  0  0  0  0
   -6.8749    6.6041  -18.6293 C   0  0  0  0  0  0  0  0  0  0  0  0
   -5.7968    5.7026  -18.0242 C   0  0  0  0  0  0  0  0  0  0  0  0
   -8.0360    6.5731  -17.6381 C   0  0  0  0  0  0  0  0  0  0  0  0
   -6.4423    4.9957  -16.8280 C   0  0  0  0  0  0  0  0  0  0  0  0
   -8.5173    6.2440  -11.2871 C   0  0  0  0  0  0  0  0  0  0  0  0
   -7.2951    4.1135  -11.9149 C   0  0  0  0  0  0  0  0  0  0  0  0
   -9.0532    2.9871  -17.1006 C   0  0  0  0  0  0  0  0  0  0  0  0
   -9.5524    5.9220  -12.3662 C   0  0  0  0  0  0  0  0  0  0  0  0
   -8.3529    3.8518  -12.9959 C   0  0  0  0  0  0  0  0  0  0  0  0
   -9.6514    3.8071  -15.9734 C   0  0  0  0  0  0  0  0  0  0  0  0
   -7.8288    4.9718  -10.7484 C   0  0  0  0  0  0  0  0  0  0  0  0
   -8.4866    4.0619  -18.0227 C   0  0  2  0  0  0  0  0  0  0  0  0
   -7.9574    5.1573  -17.0456 C   0  0  0  0  0  0  0  0  0  0  0  0
   -9.5231    3.7114   -7.5184 C   0  0  0  0  0  0  0  0  0  0  0  0
   -9.7818    2.5173   -8.4975 C   0  0  0  0  0  0  0  0  0  0  0  0
  -10.7716    4.2196   -6.7834 C   0  0  0  0  0  0  0  0  0  0  0  0
   -8.4224    3.4596   -6.4634 C   0  0  0  0  0  0  0  0  0  0  0  0
  -11.2285    2.4167   -9.0314 C   0  0  0  0  0  0  0  0  0  0  0  0
   -9.3869    1.1399   -7.9464 C   0  0  0  0  0  0  0  0  0  0  0  0
   -8.9743    5.1079  -13.4341 N   0  0  0  0  0  0  0  0  0  0  0  0
   -8.7128    4.9165  -15.7951 N   0  0  0  0  0  0  0  0  0  0  0  0
   -8.2650    6.8988  -14.6794 O   0  0  0  0  0  0  0  0  0  0  0  0
   -9.0419    4.7830   -8.3926 O   0  0  0  0  0  0  0  0  0  0  0  0
   -8.9209    2.8125   -9.6446 O   0  0  0  0  0  0  0  0  0  0  0  0
   -9.5414    4.5592  -18.8411 O   0  0  0  0  0  0  0  0  0  0  0  0
   -6.5111    7.6215  -18.7958 H   0  0  0  0  0  0  0  0  0  0  0  0
   -7.1922    6.2037  -19.5979 H   0  0  0  0  0  0  0  0  0  0  0  0
   -5.4496    4.9775  -18.7677 H   0  0  0  0  0  0  0  0  0  0  0  0
   -4.9266    6.2845  -17.7040 H   0  0  0  0  0  0  0  0  0  0  0  0
   -7.8569    7.3367  -16.8750 H   0  0  0  0  0  0  0  0  0  0  0  0
   -8.9902    6.8093  -18.1135 H   0  0  0  0  0  0  0  0  0  0  0  0
   -6.1181    3.9512  -16.7604 H   0  0  0  0  0  0  0  0  0  0  0  0
   -6.0995    5.4932  -15.9146 H   0  0  0  0  0  0  0  0  0  0  0  0
   -7.7723    6.9344  -11.7083 H   0  0  0  0  0  0  0  0  0  0  0  0
   -9.0102    6.7856  -10.4660 H   0  0  0  0  0  0  0  0  0  0  0  0
   -6.9393    3.1450  -11.5328 H   0  0  0  0  0  0  0  0  0  0  0  0
   -6.4264    4.5964  -12.3841 H   0  0  0  0  0  0  0  0  0  0  0  0
   -8.2543    2.3426  -16.7171 H   0  0  0  0  0  0  0  0  0  0  0  0
   -9.8105    2.3647  -17.5875 H   0  0  0  0  0  0  0  0  0  0  0  0
  -10.4510    5.4692  -11.9450 H   0  0  0  0  0  0  0  0  0  0  0  0
   -9.8960    6.8549  -12.8336 H   0  0  0  0  0  0  0  0  0  0  0  0
   -7.9033    3.3785  -13.8739 H   0  0  0  0  0  0  0  0  0  0  0  0
   -9.1190    3.1757  -12.6070 H   0  0  0  0  0  0  0  0  0  0  0  0
  -10.6142    4.2065  -16.2930 H   0  0  0  0  0  0  0  0  0  0  0  0
   -9.7714    3.2362  -15.0522 H   0  0  0  0  0  0  0  0  0  0  0  0
   -6.9212    5.3347  -10.2206 H   0  0  0  0  0  0  0  0  0  0  0  0
   -7.7133    3.6458  -18.6808 H   0  0  0  0  0  0  0  0  0  0  0  0
  -10.4882    5.0397   -6.1357 H   0  0  0  0  0  0  0  0  0  0  0  0
  -11.1870    3.4102   -6.1963 H   0  0  0  0  0  0  0  0  0  0  0  0
  -11.4958    4.5574   -7.5140 H   0  0  0  0  0  0  0  0  0  0  0  0
   -8.3166    4.3390   -5.8349 H   0  0  0  0  0  0  0  0  0  0  0  0
   -7.4808    3.2569   -6.9653 H   0  0  0  0  0  0  0  0  0  0  0  0
   -8.6982    2.6064   -5.8505 H   0  0  0  0  0  0  0  0  0  0  0  0
  -11.3088    1.5631   -9.6981 H   0  0  0  0  0  0  0  0  0  0  0  0
  -11.4775    3.3247   -9.5727 H   0  0  0  0  0  0  0  0  0  0  0  0
  -11.9132    2.2917   -8.1976 H   0  0  0  0  0  0  0  0  0  0  0  0
   -9.6038    0.3874   -8.6940 H   0  0  0  0  0  0  0  0  0  0  0  0
   -9.9580    0.9447   -7.0474 H   0  0  0  0  0  0  0  0  0  0  0  0
   -8.3281    1.1430   -7.7198 H   0  0  0  0  0  0  0  0  0  0  0  0
   -9.8802    3.8038  -19.3471 H   0  0  0  0  0  0  0  0  0  0  0  0
  1 13  1  0  0  0  0
  1 25  1  0  0  0  0
  1 26  1  0  0  0  0
  2 22  1  0  0  0  0
  2 23  1  0  0  0  0
  2 24  2  0  0  0  0
  3  4  1  0  0  0  0
  3  5  1  0  0  0  0
  4  6  1  0  0  0  0
  5 15  1  0  0  0  0
  6 15  1  0  0  0  0
  7 10  1  0  0  0  0
  7 13  1  0  0  0  0
  8 11  1  0  0  0  0
  8 13  1  0  0  0  0
  9 12  1  0  0  0  0
  9 14  1  0  0  0  0
 10 22  1  0  0  0  0
 11 22  1  0  0  0  0
 12 23  1  0  0  0  0
 14 15  1  0  0  0  0
 14 27  1  0  0  0  0
 15 23  1  0  0  0  0
 16 17  1  0  0  0  0
 16 18  1  0  0  0  0
 16 19  1  0  0  0  0
 16 25  1  0  0  0  0
 17 20  1  0  0  0  0
 17 21  1  0  0  0  0
 17 26  1  0  0  0  0
  3 28  1  0  0  0  0
  3 29  1  0  0  0  0
  4 30  1  0  0  0  0
  4 31  1  0  0  0  0
  5 32  1  0  0  0  0
  5 33  1  0  0  0  0
  6 34  1  0  0  0  0
  6 35  1  0  0  0  0
  7 36  1  0  0  0  0
  7 37  1  0  0  0  0
  8 38  1  0  0  0  0
  8 39  1  0  0  0  0
  9 40  1  0  0  0  0
  9 41  1  0  0  0  0
 10 42  1  0  0  0  0
 10 43  1  0  0  0  0
 11 44  1  0  0  0  0
 11 45  1  0  0  0  0
 12 46  1  0  0  0  0
 12 47  1  0  0  0  0
 13 48  1  0  0  0  0
 14 49  1  0  0  0  0
 18 50  1  0  0  0  0
 18 51  1  0  0  0  0
 18 52  1  0  0  0  0
 19 53  1  0  0  0  0
 19 54  1  0  0  0  0
 19 55  1  0  0  0  0
 20 56  1  0  0  0  0
 20 57  1  0  0  0  0
 20 58  1  0  0  0  0
 21 59  1  0  0  0  0
 21 60  1  0  0  0  0
 21 61  1  0  0  0  0
 27 62  1  0  0  0  0
M  END
> <id>
EN300-6735594

> <smiles>
CC1(C)OB(OC1(C)C)C2CCN(CC2)C(=O)N3CCC(O)C43CCCC4

> <MDLNUMBER>
MFCD32859021

> <IUPAC Name>
1-[4-(4,4,5,5-tetramethyl-1,3,2-dioxaborolan-2-yl)piperidine-1-carbonyl]-1-azaspiro[4.4]nonan-4-ol

> <URL>
https://www.enaminestore.com/catalog/EN300-6735594

> <ROCS_ShapeQuery>
_x0404_0B

> <ROCS_TanimotoCombo>
0.458 

> <ROCS_ShapeTanimoto>
0.394 

> <ROCS_ColorTanimoto>
0.064 

> <ROCS_RefTversky>
0.345 

> <ROCS_RefColorTversky>
0.070 

> <ROCS_RefTverskyCombo>
0.415 

> <ROCS_FitTversky>
1.554 

> <ROCS_FitColorTversky>
0.410 

> <ROCS_FitTverskyCombo>
1.963 

> <ROCS_ColorScore>
-5.053

> <ROCS_Overlap>
2309.608

> <ROCS_Rank>
58                  

$$$$
untitled-dbase-83027_0
  -OEChem-08222312023D

 35 39  0     0  0  0  0  0  0999 V2000
   -8.0671    4.8564  -18.3255 C   0  0  0  0  0  0  0  0  0  0  0  0
   -6.9527    5.1999  -17.5602 C   0  0  0  0  0  0  0  0  0  0  0  0
   -9.3485    4.9901  -17.7909 C   0  0  0  0  0  0  0  0  0  0  0  0
   -9.1467    4.4583   -6.8221 C   0  0  0  0  0  0  0  0  0  0  0  0
   -9.0455    3.0817   -6.6326 C   0  0  0  0  0  0  0  0  0  0  0  0
   -7.1197    5.6771  -16.2602 C   0  0  0  0  0  0  0  0  0  0  0  0
   -9.5155    5.4673  -16.4909 C   0  0  0  0  0  0  0  0  0  0  0  0
   -9.0679    4.9940   -8.1077 C   0  0  0  0  0  0  0  0  0  0  0  0
   -8.8652    2.2356   -7.7274 C   0  0  0  0  0  0  0  0  0  0  0  0
   -8.7135    7.6557  -14.1625 C   0  0  0  0  0  0  0  0  0  0  0  0
   -8.4011    5.8108  -15.7255 C   0  0  0  0  0  0  0  0  0  0  0  0
   -8.5738    6.3032  -14.3833 C   0  0  0  0  0  0  0  0  0  0  0  0
   -8.8870    4.1462   -9.2071 C   0  0  0  0  0  0  0  0  0  0  0  0
   -8.7863    2.7736   -9.0154 C   0  0  0  0  0  0  0  0  0  0  0  0
   -8.6263    5.5616  -13.1691 C   0  0  0  0  0  0  0  0  0  0  0  0
   -8.8036    6.3703  -12.0648 C   0  0  0  0  0  0  0  0  0  0  0  0
   -8.8008    4.6865  -10.5774 C   0  0  0  0  0  0  0  0  0  0  0  0
   -8.5977    1.9379  -10.2072 C   0  0  0  0  0  0  0  0  0  0  0  0
   -8.5197    4.1264  -12.9760 C   0  0  0  0  0  0  0  0  0  0  0  0
   -8.8944    5.9736  -10.7688 N   0  0  0  0  0  0  0  0  0  0  0  0
   -8.5221    2.4113  -11.4089 N   0  0  0  0  0  0  0  0  0  0  0  0
   -8.6188    3.7575  -11.6210 N   0  0  0  0  0  0  0  0  0  0  0  0
   -8.3610    3.3437  -13.9087 O   0  0  0  0  0  0  0  0  0  0  0  0
   -8.9059    8.0198  -12.5011 S   0  0  0  0  0  0  0  0  0  0  0  0
   -8.4551    0.2125  -10.1274 Cl  0  0  0  0  0  0  0  0  0  0  0  0
   -7.9373    4.4858  -19.3382 H   0  0  0  0  0  0  0  0  0  0  0  0
   -5.9550    5.0970  -17.9767 H   0  0  0  0  0  0  0  0  0  0  0  0
  -10.2160    4.7238  -18.3875 H   0  0  0  0  0  0  0  0  0  0  0  0
   -9.2870    5.1149   -5.9683 H   0  0  0  0  0  0  0  0  0  0  0  0
   -9.1072    2.6663   -5.6309 H   0  0  0  0  0  0  0  0  0  0  0  0
   -6.2410    5.9406  -15.6761 H   0  0  0  0  0  0  0  0  0  0  0  0
  -10.5211    5.5658  -16.0886 H   0  0  0  0  0  0  0  0  0  0  0  0
   -9.1499    6.0707   -8.2270 H   0  0  0  0  0  0  0  0  0  0  0  0
   -8.7901    1.1681   -7.5456 H   0  0  0  0  0  0  0  0  0  0  0  0
   -8.7134    8.4569  -14.8896 H   0  0  0  0  0  0  0  0  0  0  0  0
  1  2  2  0  0  0  0
  1  3  1  0  0  0  0
  2  6  1  0  0  0  0
  3  7  2  0  0  0  0
  4  5  2  0  0  0  0
  4  8  1  0  0  0  0
  5  9  1  0  0  0  0
  6 11  2  0  0  0  0
  7 11  1  0  0  0  0
  8 13  2  0  0  0  0
  9 14  2  0  0  0  0
 10 12  2  0  0  0  0
 10 24  1  0  0  0  0
 11 12  1  0  0  0  0
 12 15  1  0  0  0  0
 13 14  1  0  0  0  0
 13 17  1  0  0  0  0
 14 18  1  0  0  0  0
 15 16  2  0  0  0  0
 15 19  1  0  0  0  0
 16 20  1  0  0  0  0
 16 24  1  0  0  0  0
 17 20  2  0  0  0  0
 17 22  1  0  0  0  0
 18 21  2  0  0  0  0
 18 25  1  0  0  0  0
 19 22  1  0  0  0  0
 19 23  2  0  0  0  0
 21 22  1  0  0  0  0
  1 26  1  0  0  0  0
  2 27  1  0  0  0  0
  3 28  1  0  0  0  0
  4 29  1  0  0  0  0
  5 30  1  0  0  0  0
  6 31  1  0  0  0  0
  7 32  1  0  0  0  0
  8 33  1  0  0  0  0
  9 34  1  0  0  0  0
 10 35  1  0  0  0  0
M  END
> <id>
EN300-18166

> <smiles>
ClC1=NN2C(=O)C=3C(=CSC3N=C2C=4C=CC=CC14)C=5C=CC=CC5

> <MDLNUMBER>
MFCD02328864

> <IUPAC Name>
8-chloro-13-phenyl-15-thia-9,10,17-triazatetracyclo[8.7.0.0^{2,7}.0^{12,16}]heptadeca-1(17),2(7),3,5,8,12(16),13-heptaen-11-one

> <CAS>
315676-48-3

> <URL>
https://www.enaminestore.com/catalog/EN300-18166

> <ROCS_ShapeQuery>
_x0404_0B

> <ROCS_TanimotoCombo>
0.457 

> <ROCS_ShapeTanimoto>
0.391 

> <ROCS_ColorTanimoto>
0.067 

> <ROCS_RefTversky>
0.343 

> <ROCS_RefColorTversky>
0.072 

> <ROCS_RefTverskyCombo>
0.415 

> <ROCS_FitTversky>
1.559 

> <ROCS_FitColorTversky>
0.458 

> <ROCS_FitTverskyCombo>
2.018 

> <ROCS_ColorScore>
-5.230

> <ROCS_Overlap>
2290.555

> <ROCS_Rank>
59                  

$$$$
untitled-dbase-92289_1244
  -OEChem-08222312023D

 55 57  0     0  0  0  0  0  0999 V2000
   -9.0384    3.7152   -6.7566 C   0  0  0  0  0  0  0  0  0  0  0  0
   -8.8883    4.6329   -7.7903 C   0  0  0  0  0  0  0  0  0  0  0  0
   -9.2708    2.3914   -7.0932 C   0  0  0  0  0  0  0  0  0  0  0  0
   -8.9740    4.2049   -9.1104 C   0  0  0  0  0  0  0  0  0  0  0  0
   -9.2092    2.8591   -9.3417 C   0  0  0  0  0  0  0  0  0  0  0  0
   -8.2799    5.4059  -17.5307 C   0  0  0  0  0  0  0  0  0  0  0  0
  -10.0827    5.2740  -11.1037 C   0  0  0  0  0  0  0  0  0  0  0  0
   -7.5690    5.0064  -11.1322 C   0  0  0  0  0  0  0  0  0  0  0  0
   -9.9822    6.2104  -12.3154 C   0  0  0  0  0  0  0  0  0  0  0  0
   -7.4757    6.0038  -12.2919 C   0  0  0  0  0  0  0  0  0  0  0  0
   -8.6460    7.1734  -14.2092 C   0  0  0  0  0  0  0  0  0  0  0  0
   -8.8148    4.6378  -13.9635 C   0  0  0  0  0  0  0  0  0  0  0  0
   -7.8966    6.8156  -15.4876 C   0  0  0  0  0  0  0  0  0  0  0  0
   -9.3540    4.7877  -15.3826 C   0  0  0  0  0  0  0  0  0  0  0  0
   -8.8056    5.2309  -10.2348 C   0  0  0  0  0  0  0  0  0  0  0  0
   -8.7297    5.9927  -13.2005 C   0  0  0  0  0  0  0  0  0  0  0  0
   -6.5828    4.7800  -19.7470 C   0  0  0  0  0  0  0  0  0  0  0  0
   -5.4471    6.9664  -19.2580 C   0  0  0  0  0  0  0  0  0  0  0  0
   -5.4259    5.1343  -17.5401 C   0  0  0  0  0  0  0  0  0  0  0  0
   -6.2251    5.7950  -18.6623 C   0  0  0  0  0  0  0  0  0  0  0  0
   -9.3604    1.9381   -8.3637 N   0  0  0  0  0  0  0  0  0  0  0  0
   -8.5037    5.6737  -16.1768 N   0  0  0  0  0  0  0  0  0  0  0  0
   -8.7716    4.4587  -18.1412 O   0  0  0  0  0  0  0  0  0  0  0  0
   -8.6355    6.4958   -9.5756 O   0  0  0  0  0  0  0  0  0  0  0  0
   -7.4384    6.3189  -18.1106 O   0  0  0  0  0  0  0  0  0  0  0  0
   -9.3386    2.2015  -11.1260 Br  0  0  0  0  0  0  0  0  0  0  0  0
   -8.9759    4.0263   -5.7201 H   0  0  0  0  0  0  0  0  0  0  0  0
   -8.7052    5.6781   -7.5562 H   0  0  0  0  0  0  0  0  0  0  0  0
   -9.3956    1.6365   -6.3239 H   0  0  0  0  0  0  0  0  0  0  0  0
  -10.9355    5.6026  -10.4902 H   0  0  0  0  0  0  0  0  0  0  0  0
  -10.3341    4.2624  -11.4541 H   0  0  0  0  0  0  0  0  0  0  0  0
   -7.5774    3.9865  -11.5369 H   0  0  0  0  0  0  0  0  0  0  0  0
   -6.6541    5.0949  -10.5316 H   0  0  0  0  0  0  0  0  0  0  0  0
  -10.9072    6.1100  -12.9021 H   0  0  0  0  0  0  0  0  0  0  0  0
   -9.9889    7.2503  -11.9489 H   0  0  0  0  0  0  0  0  0  0  0  0
   -7.3291    7.0089  -11.8821 H   0  0  0  0  0  0  0  0  0  0  0  0
   -6.5798    5.7784  -12.8793 H   0  0  0  0  0  0  0  0  0  0  0  0
   -8.1365    8.0214  -13.7346 H   0  0  0  0  0  0  0  0  0  0  0  0
   -9.6525    7.5220  -14.4666 H   0  0  0  0  0  0  0  0  0  0  0  0
   -9.4343    3.9177  -13.4250 H   0  0  0  0  0  0  0  0  0  0  0  0
   -7.8128    4.1976  -14.0228 H   0  0  0  0  0  0  0  0  0  0  0  0
   -7.8930    7.6558  -16.1937 H   0  0  0  0  0  0  0  0  0  0  0  0
   -6.8474    6.6017  -15.2499 H   0  0  0  0  0  0  0  0  0  0  0  0
   -9.4333    3.7992  -15.8415 H   0  0  0  0  0  0  0  0  0  0  0  0
  -10.3597    5.2191  -15.3787 H   0  0  0  0  0  0  0  0  0  0  0  0
   -7.1414    3.9376  -19.3234 H   0  0  0  0  0  0  0  0  0  0  0  0
   -7.1859    5.2332  -20.5405 H   0  0  0  0  0  0  0  0  0  0  0  0
   -5.6789    4.3556  -20.1988 H   0  0  0  0  0  0  0  0  0  0  0  0
   -5.1884    7.6971  -18.4832 H   0  0  0  0  0  0  0  0  0  0  0  0
   -6.0535    7.5020  -19.9973 H   0  0  0  0  0  0  0  0  0  0  0  0
   -4.5237    6.6333  -19.7427 H   0  0  0  0  0  0  0  0  0  0  0  0
   -5.1692    5.8622  -16.7619 H   0  0  0  0  0  0  0  0  0  0  0  0
   -5.9840    4.3146  -17.0760 H   0  0  0  0  0  0  0  0  0  0  0  0
   -4.4765    4.7386  -17.9186 H   0  0  0  0  0  0  0  0  0  0  0  0
   -8.5272    7.1585  -10.2750 H   0  0  0  0  0  0  0  0  0  0  0  0
  1  2  1  0  0  0  0
  1  3  2  0  0  0  0
  2  4  2  0  0  0  0
  3 21  1  0  0  0  0
  4  5  1  0  0  0  0
  4 15  1  0  0  0  0
  5 21  2  0  0  0  0
  5 26  1  0  0  0  0
  6 22  1  0  0  0  0
  6 23  2  0  0  0  0
  6 25  1  0  0  0  0
  7  9  1  0  0  0  0
  7 15  1  0  0  0  0
  8 10  1  0  0  0  0
  8 15  1  0  0  0  0
  9 16  1  0  0  0  0
 10 16  1  0  0  0  0
 11 13  1  0  0  0  0
 11 16  1  0  0  0  0
 12 14  1  0  0  0  0
 12 16  1  0  0  0  0
 13 22  1  0  0  0  0
 14 22  1  0  0  0  0
 15 24  1  0  0  0  0
 17 20  1  0  0  0  0
 18 20  1  0  0  0  0
 19 20  1  0  0  0  0
 20 25  1  0  0  0  0
  1 27  1  0  0  0  0
  2 28  1  0  0  0  0
  3 29  1  0  0  0  0
  7 30  1  0  0  0  0
  7 31  1  0  0  0  0
  8 32  1  0  0  0  0
  8 33  1  0  0  0  0
  9 34  1  0  0  0  0
  9 35  1  0  0  0  0
 10 36  1  0  0  0  0
 10 37  1  0  0  0  0
 11 38  1  0  0  0  0
 11 39  1  0  0  0  0
 12 40  1  0  0  0  0
 12 41  1  0  0  0  0
 13 42  1  0  0  0  0
 13 43  1  0  0  0  0
 14 44  1  0  0  0  0
 14 45  1  0  0  0  0
 17 46  1  0  0  0  0
 17 47  1  0  0  0  0
 17 48  1  0  0  0  0
 18 49  1  0  0  0  0
 18 50  1  0  0  0  0
 18 51  1  0  0  0  0
 19 52  1  0  0  0  0
 19 53  1  0  0  0  0
 19 54  1  0  0  0  0
 24 55  1  0  0  0  0
M  END
> <id>
EN300-7428350

> <smiles>
CC(C)(C)OC(=O)N1CCC2(CC1)CCC(O)(CC2)C=3C=CC=NC3Br

> <IUPAC Name>
tert-butyl 9-(2-bromopyridin-3-yl)-9-hydroxy-3-azaspiro[5.5]undecane-3-carboxylate

> <CAS>
2309463-56-5

> <URL>
https://www.enaminestore.com/catalog/EN300-7428350

> <ROCS_ShapeQuery>
_x0404_0B

> <ROCS_TanimotoCombo>
0.457 

> <ROCS_ShapeTanimoto>
0.399 

> <ROCS_ColorTanimoto>
0.058 

> <ROCS_RefTversky>
0.346 

> <ROCS_RefColorTversky>
0.064 

> <ROCS_RefTverskyCombo>
0.411 

> <ROCS_FitTversky>
1.613 

> <ROCS_FitColorTversky>
0.378 

> <ROCS_FitTverskyCombo>
1.991 

> <ROCS_ColorScore>
-4.656

> <ROCS_Overlap>
2314.961

> <ROCS_Rank>
60                  

$$$$
untitled-dbase-103029_356
  -OEChem-08222312023D

 61 63  0     1  0  0  0  0  0999 V2000
   -8.8271    3.9951   -9.5333 B   0  0  0  0  0  0  0  0  0  0  0  0
   -7.2963    5.0221  -19.1717 C   0  0  0  0  0  0  0  0  0  0  0  0
   -9.0813    6.1024  -14.2133 C   0  0  0  0  0  0  0  0  0  0  0  0
   -8.6109    6.4524  -10.6088 C   0  0  0  0  0  0  0  0  0  0  0  0
   -8.3279    6.9715  -12.0119 C   0  0  0  0  0  0  0  0  0  0  0  0
   -9.1567    5.4307  -17.5568 C   0  0  0  0  0  0  0  0  0  0  0  0
   -9.7211    4.8861  -16.2609 C   0  0  0  0  0  0  0  0  0  0  0  0
   -8.8041    4.6153  -12.1520 C   0  0  0  0  0  0  0  0  0  0  0  0
   -7.4923    4.5198  -15.3556 C   0  0  0  0  0  0  0  0  0  0  0  0
   -8.3424    4.9484  -10.7280 C   0  0  2  0  0  0  0  0  0  0  0  0
   -6.8105    4.9682  -16.6865 C   0  0  0  0  0  0  0  0  0  0  0  0
   -9.2317    3.2526   -7.4068 C   0  0  0  0  0  0  0  0  0  0  0  0
   -9.7126    2.1860   -8.4473 C   0  0  0  0  0  0  0  0  0  0  0  0
   -8.3145    4.7915  -20.2646 C   0  0  0  0  0  0  0  0  0  0  0  0
   -5.6547    3.9607  -16.9010 C   0  0  0  0  0  0  0  0  0  0  0  0
   -6.2101    6.3775  -16.5002 C   0  0  0  0  0  0  0  0  0  0  0  0
  -10.2742    3.6259   -6.3434 C   0  0  0  0  0  0  0  0  0  0  0  0
   -7.9160    2.9007   -6.6768 C   0  0  0  0  0  0  0  0  0  0  0  0
  -11.2440    2.1118   -8.6411 C   0  0  0  0  0  0  0  0  0  0  0  0
   -9.2018    0.7617   -8.1875 C   0  0  0  0  0  0  0  0  0  0  0  0
   -7.7746    5.0020  -17.8431 N   0  0  0  0  0  0  0  0  0  0  0  0
   -8.6479    5.8649  -12.9071 N   0  0  0  0  0  0  0  0  0  0  0  0
   -8.8062    5.1137  -15.1617 N   0  0  0  0  0  0  0  0  0  0  0  0
   -6.1229    5.2062  -19.5024 O   0  0  0  0  0  0  0  0  0  0  0  0
   -9.7181    7.1203  -14.5118 O   0  0  0  0  0  0  0  0  0  0  0  0
   -8.9660    4.4405   -8.2206 O   0  0  0  0  0  0  0  0  0  0  0  0
   -9.1421    2.6502   -9.7135 O   0  0  0  0  0  0  0  0  0  0  0  0
   -7.9775    6.9385   -9.8574 H   0  0  0  0  0  0  0  0  0  0  0  0
   -9.6591    6.6460  -10.3427 H   0  0  0  0  0  0  0  0  0  0  0  0
   -8.9277    7.8552  -12.2496 H   0  0  0  0  0  0  0  0  0  0  0  0
   -7.2619    7.2007  -12.1119 H   0  0  0  0  0  0  0  0  0  0  0  0
   -9.8402    5.1475  -18.3769 H   0  0  0  0  0  0  0  0  0  0  0  0
   -9.1526    6.5402  -17.5530 H   0  0  0  0  0  0  0  0  0  0  0  0
  -10.6722    5.3698  -16.0433 H   0  0  0  0  0  0  0  0  0  0  0  0
   -9.8705    3.8131  -16.3693 H   0  0  0  0  0  0  0  0  0  0  0  0
   -8.2137    3.8241  -12.6232 H   0  0  0  0  0  0  0  0  0  0  0  0
   -9.8613    4.3312  -12.1931 H   0  0  0  0  0  0  0  0  0  0  0  0
   -7.5732    3.4283  -15.3270 H   0  0  0  0  0  0  0  0  0  0  0  0
   -6.8793    4.8094  -14.4947 H   0  0  0  0  0  0  0  0  0  0  0  0
   -7.2456    4.8339  -10.7222 H   0  0  0  0  0  0  0  0  0  0  0  0
   -8.7289    5.7465  -20.5681 H   0  0  0  0  0  0  0  0  0  0  0  0
   -9.1010    4.1481  -19.8850 H   0  0  0  0  0  0  0  0  0  0  0  0
   -7.8265    4.3127  -21.1066 H   0  0  0  0  0  0  0  0  0  0  0  0
   -5.1313    4.2125  -17.8158 H   0  0  0  0  0  0  0  0  0  0  0  0
   -6.0662    2.9610  -16.9749 H   0  0  0  0  0  0  0  0  0  0  0  0
   -4.9746    4.0183  -16.0592 H   0  0  0  0  0  0  0  0  0  0  0  0
   -5.7379    6.6855  -17.4255 H   0  0  0  0  0  0  0  0  0  0  0  0
   -5.4759    6.3463  -15.7040 H   0  0  0  0  0  0  0  0  0  0  0  0
   -7.0041    7.0687  -16.2432 H   0  0  0  0  0  0  0  0  0  0  0  0
   -9.8469    4.3647   -5.6770 H   0  0  0  0  0  0  0  0  0  0  0  0
  -10.5424    2.7364   -5.7873 H   0  0  0  0  0  0  0  0  0  0  0  0
  -11.1483    4.0327   -6.8363 H   0  0  0  0  0  0  0  0  0  0  0  0
   -7.6658    3.6955   -5.9802 H   0  0  0  0  0  0  0  0  0  0  0  0
   -7.1173    2.7914   -7.4047 H   0  0  0  0  0  0  0  0  0  0  0  0
   -8.0424    1.9686   -6.1339 H   0  0  0  0  0  0  0  0  0  0  0  0
  -11.4782    1.3482   -9.3771 H   0  0  0  0  0  0  0  0  0  0  0  0
  -11.6112    3.0737   -8.9867 H   0  0  0  0  0  0  0  0  0  0  0  0
  -11.7159    1.8614   -7.6954 H   0  0  0  0  0  0  0  0  0  0  0  0
   -9.5877    0.1046   -8.9567 H   0  0  0  0  0  0  0  0  0  0  0  0
   -9.5481    0.4367   -7.2144 H   0  0  0  0  0  0  0  0  0  0  0  0
   -8.1193    0.7669   -8.2131 H   0  0  0  0  0  0  0  0  0  0  0  0
  1 10  1  0  0  0  0
  1 26  1  0  0  0  0
  1 27  1  0  0  0  0
  2 14  1  0  0  0  0
  2 21  1  0  0  0  0
  2 24  2  0  0  0  0
  3 22  1  0  0  0  0
  3 23  1  0  0  0  0
  3 25  2  0  0  0  0
  4  5  1  0  0  0  0
  4 10  1  0  0  0  0
  5 22  1  0  0  0  0
  6  7  1  0  0  0  0
  6 21  1  0  0  0  0
  7 23  1  0  0  0  0
  8 10  1  0  0  0  0
  8 22  1  0  0  0  0
  9 11  1  0  0  0  0
  9 23  1  0  0  0  0
 11 15  1  0  0  0  0
 11 16  1  0  0  0  0
 11 21  1  0  0  0  0
 12 13  1  0  0  0  0
 12 17  1  0  0  0  0
 12 18  1  0  0  0  0
 12 26  1  0  0  0  0
 13 19  1  0  0  0  0
 13 20  1  0  0  0  0
 13 27  1  0  0  0  0
  4 28  1  0  0  0  0
  4 29  1  0  0  0  0
  5 30  1  0  0  0  0
  5 31  1  0  0  0  0
  6 32  1  0  0  0  0
  6 33  1  0  0  0  0
  7 34  1  0  0  0  0
  7 35  1  0  0  0  0
  8 36  1  0  0  0  0
  8 37  1  0  0  0  0
  9 38  1  0  0  0  0
  9 39  1  0  0  0  0
 10 40  1  0  0  0  0
 14 41  1  0  0  0  0
 14 42  1  0  0  0  0
 14 43  1  0  0  0  0
 15 44  1  0  0  0  0
 15 45  1  0  0  0  0
 15 46  1  0  0  0  0
 16 47  1  0  0  0  0
 16 48  1  0  0  0  0
 16 49  1  0  0  0  0
 17 50  1  0  0  0  0
 17 51  1  0  0  0  0
 17 52  1  0  0  0  0
 18 53  1  0  0  0  0
 18 54  1  0  0  0  0
 18 55  1  0  0  0  0
 19 56  1  0  0  0  0
 19 57  1  0  0  0  0
 19 58  1  0  0  0  0
 20 59  1  0  0  0  0
 20 60  1  0  0  0  0
 20 61  1  0  0  0  0
M  END
> <id>
EN300-6735936

> <smiles>
CC(=O)N1CCN(CC1(C)C)C(=O)N2CCC(C2)B3OC(C)(C)C(C)(C)O3

> <IUPAC Name>
1-{2,2-dimethyl-4-[3-(4,4,5,5-tetramethyl-1,3,2-dioxaborolan-2-yl)pyrrolidine-1-carbonyl]piperazin-1-yl}ethan-1-one

> <URL>
https://www.enaminestore.com/catalog/EN300-6735936

> <ROCS_ShapeQuery>
_x0404_0B

> <ROCS_TanimotoCombo>
0.457 

> <ROCS_ShapeTanimoto>
0.401 

> <ROCS_ColorTanimoto>
0.056 

> <ROCS_RefTversky>
0.349 

> <ROCS_RefColorTversky>
0.062 

> <ROCS_RefTverskyCombo>
0.411 

> <ROCS_FitTversky>
1.580 

> <ROCS_FitColorTversky>
0.391 

> <ROCS_FitTverskyCombo>
1.971 

> <ROCS_ColorScore>
-4.452

> <ROCS_Overlap>
2335.770

> <ROCS_Rank>
61                  

$$$$
untitled-dbase-154148_553
  -OEChem-08222312023D

 57 59  0     0  0  0  0  0  0999 V2000
   -8.8321    3.6656   -9.4076 B   0  0  0  0  0  0  0  0  0  0  0  0
   -8.9932    6.8037  -11.4450 C   0  0  0  0  0  0  0  0  0  0  0  0
   -8.9558    5.8773  -10.4136 C   0  0  0  0  0  0  0  0  0  0  0  0
   -8.8951    6.3774  -12.7709 C   0  0  0  0  0  0  0  0  0  0  0  0
   -8.8115    4.5246  -10.7090 C   0  0  0  0  0  0  0  0  0  0  0  0
   -8.6904    4.0733  -12.0391 C   0  0  0  0  0  0  0  0  0  0  0  0
   -8.7490    5.0148  -13.0971 C   0  0  0  0  0  0  0  0  0  0  0  0
   -8.1141    5.4234  -15.4737 C   0  0  0  0  0  0  0  0  0  0  0  0
   -8.4846    2.5849  -12.2310 C   0  0  0  0  0  0  0  0  0  0  0  0
   -9.2780    3.2998  -14.8129 C   0  0  0  0  0  0  0  0  0  0  0  0
   -8.2795    2.1779  -14.5682 C   0  0  0  0  0  0  0  0  0  0  0  0
   -8.7557    3.1310   -7.1891 C   0  0  0  0  0  0  0  0  0  0  0  0
   -8.9666    1.8371   -8.0468 C   0  0  0  0  0  0  0  0  0  0  0  0
   -9.7477    3.2994   -6.0295 C   0  0  0  0  0  0  0  0  0  0  0  0
   -7.3291    3.3085   -6.6219 C   0  0  0  0  0  0  0  0  0  0  0  0
  -10.4030    1.2672   -8.0198 C   0  0  0  0  0  0  0  0  0  0  0  0
   -7.9990    0.6899   -7.7236 C   0  0  0  0  0  0  0  0  0  0  0  0
   -6.6394    6.5859  -17.6401 C   0  0  0  0  0  0  0  0  0  0  0  0
   -6.7311    4.3032  -18.6842 C   0  0  0  0  0  0  0  0  0  0  0  0
   -8.8585    5.5639  -18.2451 C   0  0  0  0  0  0  0  0  0  0  0  0
   -7.4377    5.2880  -17.7553 C   0  0  0  0  0  0  0  0  0  0  0  0
   -8.7084    4.6146  -14.4834 N   0  0  0  0  0  0  0  0  0  0  0  0
   -8.0841    6.6525  -15.4707 O   0  0  0  0  0  0  0  0  0  0  0  0
   -8.9779    4.2232   -8.1399 O   0  0  0  0  0  0  0  0  0  0  0  0
   -8.7063    2.2787   -9.4192 O   0  0  0  0  0  0  0  0  0  0  0  0
   -7.6092    2.3045  -13.3182 O   0  0  0  0  0  0  0  0  0  0  0  0
   -7.5116    4.6819  -16.4594 O   0  0  0  0  0  0  0  0  0  0  0  0
   -9.1185    7.8600  -11.2243 H   0  0  0  0  0  0  0  0  0  0  0  0
   -9.0508    6.2524   -9.3956 H   0  0  0  0  0  0  0  0  0  0  0  0
   -8.9925    7.1374  -13.5415 H   0  0  0  0  0  0  0  0  0  0  0  0
   -7.9723    2.1450  -11.3711 H   0  0  0  0  0  0  0  0  0  0  0  0
   -9.4426    2.0602  -12.3361 H   0  0  0  0  0  0  0  0  0  0  0  0
   -9.6074    3.2676  -15.8566 H   0  0  0  0  0  0  0  0  0  0  0  0
  -10.1907    3.1639  -14.2193 H   0  0  0  0  0  0  0  0  0  0  0  0
   -8.7839    1.2056  -14.6034 H   0  0  0  0  0  0  0  0  0  0  0  0
   -7.5125    2.1746  -15.3500 H   0  0  0  0  0  0  0  0  0  0  0  0
   -9.5190    4.2171   -5.5024 H   0  0  0  0  0  0  0  0  0  0  0  0
   -9.6518    2.4538   -5.3600 H   0  0  0  0  0  0  0  0  0  0  0  0
  -10.7525    3.3427   -6.4306 H   0  0  0  0  0  0  0  0  0  0  0  0
   -7.2814    4.2278   -6.0455 H   0  0  0  0  0  0  0  0  0  0  0  0
   -6.6181    3.3569   -7.4415 H   0  0  0  0  0  0  0  0  0  0  0  0
   -7.0877    2.4653   -5.9813 H   0  0  0  0  0  0  0  0  0  0  0  0
  -10.4499    0.3767   -8.6398 H   0  0  0  0  0  0  0  0  0  0  0  0
  -11.0944    2.0124   -8.4024 H   0  0  0  0  0  0  0  0  0  0  0  0
  -10.6716    1.0131   -6.9986 H   0  0  0  0  0  0  0  0  0  0  0  0
   -8.2258   -0.1519   -8.3657 H   0  0  0  0  0  0  0  0  0  0  0  0
   -8.1230    0.4082   -6.6855 H   0  0  0  0  0  0  0  0  0  0  0  0
   -6.9848    1.0265   -7.8979 H   0  0  0  0  0  0  0  0  0  0  0  0
   -7.1433    7.2955  -16.9742 H   0  0  0  0  0  0  0  0  0  0  0  0
   -5.6298    6.4058  -17.2566 H   0  0  0  0  0  0  0  0  0  0  0  0
   -6.5564    7.0815  -18.6141 H   0  0  0  0  0  0  0  0  0  0  0  0
   -7.3004    3.3705  -18.7697 H   0  0  0  0  0  0  0  0  0  0  0  0
   -5.7472    4.0289  -18.2867 H   0  0  0  0  0  0  0  0  0  0  0  0
   -6.5958    4.7200  -19.6874 H   0  0  0  0  0  0  0  0  0  0  0  0
   -9.4313    4.6332  -18.3278 H   0  0  0  0  0  0  0  0  0  0  0  0
   -9.3935    6.2402  -17.5705 H   0  0  0  0  0  0  0  0  0  0  0  0
   -8.8458    6.0092  -19.2465 H   0  0  0  0  0  0  0  0  0  0  0  0
  1  5  1  0  0  0  0
  1 24  1  0  0  0  0
  1 25  1  0  0  0  0
  2  3  2  0  0  0  0
  2  4  1  0  0  0  0
  3  5  1  0  0  0  0
  4  7  2  0  0  0  0
  5  6  2  0  0  0  0
  6  7  1  0  0  0  0
  6  9  1  0  0  0  0
  7 22  1  0  0  0  0
  8 22  1  0  0  0  0
  8 23  2  0  0  0  0
  8 27  1  0  0  0  0
  9 26  1  0  0  0  0
 10 11  1  0  0  0  0
 10 22  1  0  0  0  0
 11 26  1  0  0  0  0
 12 13  1  0  0  0  0
 12 14  1  0  0  0  0
 12 15  1  0  0  0  0
 12 24  1  0  0  0  0
 13 16  1  0  0  0  0
 13 17  1  0  0  0  0
 13 25  1  0  0  0  0
 18 21  1  0  0  0  0
 19 21  1  0  0  0  0
 20 21  1  0  0  0  0
 21 27  1  0  0  0  0
  2 28  1  0  0  0  0
  3 29  1  0  0  0  0
  4 30  1  0  0  0  0
  9 31  1  0  0  0  0
  9 32  1  0  0  0  0
 10 33  1  0  0  0  0
 10 34  1  0  0  0  0
 11 35  1  0  0  0  0
 11 36  1  0  0  0  0
 14 37  1  0  0  0  0
 14 38  1  0  0  0  0
 14 39  1  0  0  0  0
 15 40  1  0  0  0  0
 15 41  1  0  0  0  0
 15 42  1  0  0  0  0
 16 43  1  0  0  0  0
 16 44  1  0  0  0  0
 16 45  1  0  0  0  0
 17 46  1  0  0  0  0
 17 47  1  0  0  0  0
 17 48  1  0  0  0  0
 18 49  1  0  0  0  0
 18 50  1  0  0  0  0
 18 51  1  0  0  0  0
 19 52  1  0  0  0  0
 19 53  1  0  0  0  0
 19 54  1  0  0  0  0
 20 55  1  0  0  0  0
 20 56  1  0  0  0  0
 20 57  1  0  0  0  0
M  END
> <id>
EN300-28301364

> <smiles>
CC(C)(C)OC(=O)N1CCOCC=2C(=CC=CC12)B3OC(C)(C)C(C)(C)O3

> <IUPAC Name>
tert-butyl 6-(4,4,5,5-tetramethyl-1,3,2-dioxaborolan-2-yl)-1,2,3,5-tetrahydro-4,1-benzoxazepine-1-carboxylate

> <URL>
https://www.enaminestore.com/catalog/EN300-28301364

> <ROCS_ShapeQuery>
_x0404_0B

> <ROCS_TanimotoCombo>
0.457 

> <ROCS_ShapeTanimoto>
0.378 

> <ROCS_ColorTanimoto>
0.079 

> <ROCS_RefTversky>
0.336 

> <ROCS_RefColorTversky>
0.084 

> <ROCS_RefTverskyCombo>
0.421 

> <ROCS_FitTversky>
1.498 

> <ROCS_FitColorTversky>
0.535 

> <ROCS_FitTverskyCombo>
2.034 

> <ROCS_ColorScore>
-6.097

> <ROCS_Overlap>
2247.168

> <ROCS_Rank>
62                  

$$$$
untitled-dbase-149408_39
  -OEChem-08222312023D

 49 53  0     0  0  0  0  0  0999 V2000
   -9.4629    2.5694   -7.2190 C   0  0  0  0  0  0  0  0  0  0  0  0
   -9.3111    2.0834   -8.5176 C   0  0  0  0  0  0  0  0  0  0  0  0
   -9.2273    3.9170   -6.9467 C   0  0  0  0  0  0  0  0  0  0  0  0
  -10.1596    4.5142  -17.8069 C   0  0  0  0  0  0  0  0  0  0  0  0
   -5.6931    8.1022  -13.0805 C   0  0  0  0  0  0  0  0  0  0  0  0
   -9.1659    4.3284  -18.7521 C   0  0  0  0  0  0  0  0  0  0  0  0
   -4.5809    7.9880  -13.8963 C   0  0  0  0  0  0  0  0  0  0  0  0
   -8.9236    2.9450   -9.5439 C   0  0  0  0  0  0  0  0  0  0  0  0
   -8.8398    4.7786   -7.9729 C   0  0  0  0  0  0  0  0  0  0  0  0
   -9.8559    5.1370  -16.5943 C   0  0  0  0  0  0  0  0  0  0  0  0
   -6.9017    7.5214  -13.4706 C   0  0  0  0  0  0  0  0  0  0  0  0
   -7.8734    4.7616  -18.4757 C   0  0  0  0  0  0  0  0  0  0  0  0
   -4.6852    7.2937  -15.0971 C   0  0  0  0  0  0  0  0  0  0  0  0
   -8.6880    4.2926   -9.2715 C   0  0  0  0  0  0  0  0  0  0  0  0
   -8.5530    5.5975  -16.2907 C   0  0  0  0  0  0  0  0  0  0  0  0
   -7.0364    6.8079  -14.6852 C   0  0  0  0  0  0  0  0  0  0  0  0
   -7.5579    5.3907  -17.2546 C   0  0  0  0  0  0  0  0  0  0  0  0
   -5.9009    6.7046  -15.4987 C   0  0  0  0  0  0  0  0  0  0  0  0
   -9.3900    6.3927  -14.1262 C   0  0  0  0  0  0  0  0  0  0  0  0
   -7.5263    4.6938  -11.4519 C   0  0  0  0  0  0  0  0  0  0  0  0
   -9.0059    6.4224  -10.5109 C   0  0  0  0  0  0  0  0  0  0  0  0
   -8.4600    4.5203  -12.6491 C   0  0  0  0  0  0  0  0  0  0  0  0
   -9.9491    6.2665  -11.7074 C   0  0  0  0  0  0  0  0  0  0  0  0
   -8.3133    6.2293  -15.0192 N   0  0  0  0  0  0  0  0  0  0  0  0
   -8.3018    5.1518  -10.2944 N   0  0  0  0  0  0  0  0  0  0  0  0
   -9.2318    5.7546  -12.8800 N   0  0  0  0  0  0  0  0  0  0  0  0
  -10.3882    7.0509  -14.4379 O   0  0  0  0  0  0  0  0  0  0  0  0
   -5.8645    5.8491  -17.0441 S   0  0  0  0  0  0  0  0  0  0  0  0
   -9.7644    1.8984   -6.4199 H   0  0  0  0  0  0  0  0  0  0  0  0
   -9.4944    1.0343   -8.7294 H   0  0  0  0  0  0  0  0  0  0  0  0
   -9.3455    4.2953   -5.9353 H   0  0  0  0  0  0  0  0  0  0  0  0
  -11.1732    4.1792  -18.0062 H   0  0  0  0  0  0  0  0  0  0  0  0
   -5.6274    8.6385  -12.1387 H   0  0  0  0  0  0  0  0  0  0  0  0
   -9.3926    3.8528  -19.7012 H   0  0  0  0  0  0  0  0  0  0  0  0
   -3.6339    8.4269  -13.5981 H   0  0  0  0  0  0  0  0  0  0  0  0
   -8.8080    2.5563  -10.5523 H   0  0  0  0  0  0  0  0  0  0  0  0
   -8.6592    5.8269   -7.7489 H   0  0  0  0  0  0  0  0  0  0  0  0
  -10.6796    5.2559  -15.8948 H   0  0  0  0  0  0  0  0  0  0  0  0
   -7.7371    7.6457  -12.7864 H   0  0  0  0  0  0  0  0  0  0  0  0
   -7.1081    4.6022  -19.2338 H   0  0  0  0  0  0  0  0  0  0  0  0
   -3.7944    7.2108  -15.7180 H   0  0  0  0  0  0  0  0  0  0  0  0
   -7.0510    3.7383  -11.2261 H   0  0  0  0  0  0  0  0  0  0  0  0
   -6.7462    5.4193  -11.6900 H   0  0  0  0  0  0  0  0  0  0  0  0
   -8.3055    7.2305  -10.7138 H   0  0  0  0  0  0  0  0  0  0  0  0
   -9.5702    6.6771   -9.6161 H   0  0  0  0  0  0  0  0  0  0  0  0
   -7.8809    4.2703  -13.5316 H   0  0  0  0  0  0  0  0  0  0  0  0
   -9.1731    3.7211  -12.4603 H   0  0  0  0  0  0  0  0  0  0  0  0
  -10.7637    5.5893  -11.4542 H   0  0  0  0  0  0  0  0  0  0  0  0
  -10.3835    7.2275  -11.9852 H   0  0  0  0  0  0  0  0  0  0  0  0
  1  2  2  0  0  0  0
  1  3  1  0  0  0  0
  2  8  1  0  0  0  0
  3  9  2  0  0  0  0
  4  6  2  0  0  0  0
  4 10  1  0  0  0  0
  5  7  2  0  0  0  0
  5 11  1  0  0  0  0
  6 12  1  0  0  0  0
  7 13  1  0  0  0  0
  8 14  2  0  0  0  0
  9 14  1  0  0  0  0
 10 15  2  0  0  0  0
 11 16  2  0  0  0  0
 12 17  2  0  0  0  0
 13 18  2  0  0  0  0
 14 25  1  0  0  0  0
 15 17  1  0  0  0  0
 15 24  1  0  0  0  0
 16 18  1  0  0  0  0
 16 24  1  0  0  0  0
 17 28  1  0  0  0  0
 18 28  1  0  0  0  0
 19 24  1  0  0  0  0
 19 26  1  0  0  0  0
 19 27  2  0  0  0  0
 20 22  1  0  0  0  0
 20 25  1  0  0  0  0
 21 23  1  0  0  0  0
 21 25  1  0  0  0  0
 22 26  1  0  0  0  0
 23 26  1  0  0  0  0
  1 29  1  0  0  0  0
  2 30  1  0  0  0  0
  3 31  1  0  0  0  0
  4 32  1  0  0  0  0
  5 33  1  0  0  0  0
  6 34  1  0  0  0  0
  7 35  1  0  0  0  0
  8 36  1  0  0  0  0
  9 37  1  0  0  0  0
 10 38  1  0  0  0  0
 11 39  1  0  0  0  0
 12 40  1  0  0  0  0
 13 41  1  0  0  0  0
 20 42  1  0  0  0  0
 20 43  1  0  0  0  0
 21 44  1  0  0  0  0
 21 45  1  0  0  0  0
 22 46  1  0  0  0  0
 22 47  1  0  0  0  0
 23 48  1  0  0  0  0
 23 49  1  0  0  0  0
M  END
> <id>
EN300-26868187

> <smiles>
O=C(N1CCN(CC1)C=2C=CC=CC2)N3C=4C=CC=CC4SC=5C=CC=CC35

> <MDLNUMBER>
MFCD03144226

> <IUPAC Name>
10-(4-phenylpiperazine-1-carbonyl)-10H-phenothiazine

> <CAS>
432525-24-1

> <Purity>
95

> <URL>
https://www.enaminestore.com/catalog/EN300-26868187

> <ROCS_ShapeQuery>
_x0404_0B

> <ROCS_TanimotoCombo>
0.457 

> <ROCS_ShapeTanimoto>
0.391 

> <ROCS_ColorTanimoto>
0.066 

> <ROCS_RefTversky>
0.347 

> <ROCS_RefColorTversky>
0.070 

> <ROCS_RefTverskyCombo>
0.417 

> <ROCS_FitTversky>
1.478 

> <ROCS_FitColorTversky>
0.534 

> <ROCS_FitTverskyCombo>
2.012 

> <ROCS_ColorScore>
-5.067

> <ROCS_Overlap>
2319.655

> <ROCS_Rank>
63                  

$$$$
untitled-dbase-91704_2235
  -OEChem-08222312023D

 55 57  0     0  0  0  0  0  0999 V2000
   -8.8814    4.6357   -7.7582 C   0  0  0  0  0  0  0  0  0  0  0  0
   -9.0348    3.6991   -6.7421 C   0  0  0  0  0  0  0  0  0  0  0  0
   -9.2057    2.8923   -9.3431 C   0  0  0  0  0  0  0  0  0  0  0  0
   -8.9671    4.2328   -9.0862 C   0  0  0  0  0  0  0  0  0  0  0  0
   -9.2706    2.3826   -7.1039 C   0  0  0  0  0  0  0  0  0  0  0  0
   -8.3185    5.2912  -17.5292 C   0  0  0  0  0  0  0  0  0  0  0  0
  -10.0854    5.2701  -11.0909 C   0  0  0  0  0  0  0  0  0  0  0  0
   -7.5723    4.9981  -11.1290 C   0  0  0  0  0  0  0  0  0  0  0  0
   -9.9903    6.1858  -12.3188 C   0  0  0  0  0  0  0  0  0  0  0  0
   -7.4840    5.9757  -12.3058 C   0  0  0  0  0  0  0  0  0  0  0  0
   -8.6633    7.1149  -14.2359 C   0  0  0  0  0  0  0  0  0  0  0  0
   -8.8345    4.5840  -13.9467 C   0  0  0  0  0  0  0  0  0  0  0  0
   -7.9216    6.7344  -15.5123 C   0  0  0  0  0  0  0  0  0  0  0  0
   -9.3815    4.7109  -15.3651 C   0  0  0  0  0  0  0  0  0  0  0  0
   -8.8034    5.2396  -10.2286 C   0  0  0  0  0  0  0  0  0  0  0  0
   -8.7431    5.9514  -13.2071 C   0  0  0  0  0  0  0  0  0  0  0  0
   -6.6348    4.6256  -19.7442 C   0  0  0  0  0  0  0  0  0  0  0  0
   -5.4932    6.8181  -19.2983 C   0  0  0  0  0  0  0  0  0  0  0  0
   -5.4650    5.0151  -17.5500 C   0  0  0  0  0  0  0  0  0  0  0  0
   -6.2695    5.6581  -18.6787 C   0  0  0  0  0  0  0  0  0  0  0  0
   -9.3603    1.9535   -8.3828 N   0  0  0  0  0  0  0  0  0  0  0  0
   -8.5343    5.5821  -16.1789 N   0  0  0  0  0  0  0  0  0  0  0  0
   -8.8150    4.3347  -18.1210 O   0  0  0  0  0  0  0  0  0  0  0  0
   -8.6278    6.5150   -9.5917 O   0  0  0  0  0  0  0  0  0  0  0  0
   -7.4789    6.1931  -18.1291 O   0  0  0  0  0  0  0  0  0  0  0  0
   -9.4823    1.0867   -5.7318 Br  0  0  0  0  0  0  0  0  0  0  0  0
   -8.6959    5.6764   -7.5062 H   0  0  0  0  0  0  0  0  0  0  0  0
   -8.9686    4.0092   -5.7047 H   0  0  0  0  0  0  0  0  0  0  0  0
   -9.2837    2.5200  -10.3600 H   0  0  0  0  0  0  0  0  0  0  0  0
  -10.9342    5.6103  -10.4783 H   0  0  0  0  0  0  0  0  0  0  0  0
  -10.3402    4.2531  -11.4229 H   0  0  0  0  0  0  0  0  0  0  0  0
   -7.5845    3.9715  -11.5165 H   0  0  0  0  0  0  0  0  0  0  0  0
   -6.6538    5.0952  -10.5351 H   0  0  0  0  0  0  0  0  0  0  0  0
  -10.9188    6.0771  -12.8986 H   0  0  0  0  0  0  0  0  0  0  0  0
   -9.9935    7.2318  -11.9697 H   0  0  0  0  0  0  0  0  0  0  0  0
   -7.3336    6.9874  -11.9137 H   0  0  0  0  0  0  0  0  0  0  0  0
   -6.5918    5.7391  -12.8943 H   0  0  0  0  0  0  0  0  0  0  0  0
   -8.1499    7.9699  -13.7784 H   0  0  0  0  0  0  0  0  0  0  0  0
   -9.6707    7.4607  -14.4935 H   0  0  0  0  0  0  0  0  0  0  0  0
   -9.4520    3.8740  -13.3927 H   0  0  0  0  0  0  0  0  0  0  0  0
   -7.8335    4.1412  -14.0042 H   0  0  0  0  0  0  0  0  0  0  0  0
   -7.9208    7.5626  -16.2324 H   0  0  0  0  0  0  0  0  0  0  0  0
   -6.8714    6.5230  -15.2769 H   0  0  0  0  0  0  0  0  0  0  0  0
   -9.4647    3.7149  -15.8069 H   0  0  0  0  0  0  0  0  0  0  0  0
  -10.3864    5.1439  -15.3629 H   0  0  0  0  0  0  0  0  0  0  0  0
   -7.1922    3.7913  -19.3034 H   0  0  0  0  0  0  0  0  0  0  0  0
   -7.2416    5.0664  -20.5418 H   0  0  0  0  0  0  0  0  0  0  0  0
   -5.7341    4.1922  -20.1938 H   0  0  0  0  0  0  0  0  0  0  0  0
   -5.2290    7.5613  -18.5374 H   0  0  0  0  0  0  0  0  0  0  0  0
   -6.1029    7.3422  -20.0431 H   0  0  0  0  0  0  0  0  0  0  0  0
   -4.5730    6.4755  -19.7825 H   0  0  0  0  0  0  0  0  0  0  0  0
   -5.2029    5.7555  -16.7856 H   0  0  0  0  0  0  0  0  0  0  0  0
   -6.0217    4.2042  -17.0691 H   0  0  0  0  0  0  0  0  0  0  0  0
   -4.5183    4.6116  -17.9272 H   0  0  0  0  0  0  0  0  0  0  0  0
   -9.4266    6.6722   -9.0652 H   0  0  0  0  0  0  0  0  0  0  0  0
  1  2  1  0  0  0  0
  1  4  2  0  0  0  0
  2  5  2  0  0  0  0
  3  4  1  0  0  0  0
  3 21  2  0  0  0  0
  4 15  1  0  0  0  0
  5 21  1  0  0  0  0
  5 26  1  0  0  0  0
  6 22  1  0  0  0  0
  6 23  2  0  0  0  0
  6 25  1  0  0  0  0
  7  9  1  0  0  0  0
  7 15  1  0  0  0  0
  8 10  1  0  0  0  0
  8 15  1  0  0  0  0
  9 16  1  0  0  0  0
 10 16  1  0  0  0  0
 11 13  1  0  0  0  0
 11 16  1  0  0  0  0
 12 14  1  0  0  0  0
 12 16  1  0  0  0  0
 13 22  1  0  0  0  0
 14 22  1  0  0  0  0
 15 24  1  0  0  0  0
 17 20  1  0  0  0  0
 18 20  1  0  0  0  0
 19 20  1  0  0  0  0
 20 25  1  0  0  0  0
  1 27  1  0  0  0  0
  2 28  1  0  0  0  0
  3 29  1  0  0  0  0
  7 30  1  0  0  0  0
  7 31  1  0  0  0  0
  8 32  1  0  0  0  0
  8 33  1  0  0  0  0
  9 34  1  0  0  0  0
  9 35  1  0  0  0  0
 10 36  1  0  0  0  0
 10 37  1  0  0  0  0
 11 38  1  0  0  0  0
 11 39  1  0  0  0  0
 12 40  1  0  0  0  0
 12 41  1  0  0  0  0
 13 42  1  0  0  0  0
 13 43  1  0  0  0  0
 14 44  1  0  0  0  0
 14 45  1  0  0  0  0
 17 46  1  0  0  0  0
 17 47  1  0  0  0  0
 17 48  1  0  0  0  0
 18 49  1  0  0  0  0
 18 50  1  0  0  0  0
 18 51  1  0  0  0  0
 19 52  1  0  0  0  0
 19 53  1  0  0  0  0
 19 54  1  0  0  0  0
 24 55  1  0  0  0  0
M  END
> <id>
EN300-7428348

> <smiles>
CC(C)(C)OC(=O)N1CCC2(CC1)CCC(O)(CC2)C=3C=CC(Br)=NC3

> <IUPAC Name>
tert-butyl 9-(6-bromopyridin-3-yl)-9-hydroxy-3-azaspiro[5.5]undecane-3-carboxylate

> <CAS>
2309449-71-4

> <URL>
https://www.enaminestore.com/catalog/EN300-7428348

> <ROCS_ShapeQuery>
_x0404_0B

> <ROCS_TanimotoCombo>
0.457 

> <ROCS_ShapeTanimoto>
0.399 

> <ROCS_ColorTanimoto>
0.058 

> <ROCS_RefTversky>
0.346 

> <ROCS_RefColorTversky>
0.064 

> <ROCS_RefTverskyCombo>
0.410 

> <ROCS_FitTversky>
1.614 

> <ROCS_FitColorTversky>
0.377 

> <ROCS_FitTverskyCombo>
1.992 

> <ROCS_ColorScore>
-4.654

> <ROCS_Overlap>
2312.239

> <ROCS_Rank>
64                  

$$$$
untitled-dbase-104312_123
  -OEChem-08222312023D

 48 51  0     1  0  0  0  0  0999 V2000
   -8.1104    3.2287  -14.1977 C   0  0  0  0  0  0  0  0  0  0  0  0
  -10.0178    3.4301   -8.1085 C   0  0  0  0  0  0  0  0  0  0  0  0
   -8.4344    2.1375   -8.7204 C   0  0  0  0  0  0  0  0  0  0  0  0
   -9.3138    4.1398   -9.0570 C   0  0  0  0  0  0  0  0  0  0  0  0
   -9.3381    5.2234  -12.1046 C   0  0  0  0  0  0  0  0  0  0  0  0
   -9.4658    5.5089   -9.6202 C   0  0  0  0  0  0  0  0  0  0  0  0
   -7.3323    5.2129  -17.9738 C   0  0  0  0  0  0  0  0  0  0  0  0
   -8.2972    7.3387  -14.8180 C   0  0  0  0  0  0  0  0  0  0  0  0
   -8.4282    4.4705  -18.7241 C   0  0  0  0  0  0  0  0  0  0  0  0
   -7.3671    4.8415  -16.4924 C   0  0  0  0  0  0  0  0  0  0  0  0
   -9.1687    6.5344  -15.7850 C   0  0  0  0  0  0  0  0  0  0  0  0
   -7.2382    5.0738  -10.7747 C   0  0  0  0  0  0  0  0  0  0  0  0
   -7.3206    3.5803  -10.4505 C   0  0  0  0  0  0  0  0  0  0  0  0
   -7.7910    6.5177  -13.6363 C   0  0  0  0  0  0  0  0  0  0  0  0
   -9.7778    4.6701  -18.0542 C   0  0  0  0  0  0  0  0  0  0  0  0
   -8.9284    4.4371  -14.4219 C   0  0  2  0  0  0  0  0  0  0  0  0
   -8.6221    5.7273  -10.8838 C   0  0  1  0  0  0  0  0  0  0  0  0
   -8.7724    5.0390  -15.8654 C   0  0  2  0  0  0  0  0  0  0  0  0
   -7.4675    2.2790  -14.0215 N   0  0  0  0  0  0  0  0  0  0  0  0
   -9.4656    2.1881   -7.9051 N   0  0  0  0  0  0  0  0  0  0  0  0
   -8.3045    3.2935   -9.4297 N   0  0  0  0  0  0  0  0  0  0  0  0
   -8.6972    5.4109  -13.3346 N   0  0  0  0  0  0  0  0  0  0  0  0
  -10.4376    4.6778  -11.9763 O   0  0  0  0  0  0  0  0  0  0  0  0
   -9.7382    4.3243  -16.6719 O   0  0  0  0  0  0  0  0  0  0  0  0
  -10.8907    3.7510   -7.5587 H   0  0  0  0  0  0  0  0  0  0  0  0
   -7.7623    1.2986   -8.8379 H   0  0  0  0  0  0  0  0  0  0  0  0
  -10.5254    5.7131   -9.8145 H   0  0  0  0  0  0  0  0  0  0  0  0
   -9.1389    6.2244   -8.8549 H   0  0  0  0  0  0  0  0  0  0  0  0
   -6.3549    4.9607  -18.3967 H   0  0  0  0  0  0  0  0  0  0  0  0
   -7.4634    6.2928  -18.0946 H   0  0  0  0  0  0  0  0  0  0  0  0
   -7.4364    7.7539  -15.3672 H   0  0  0  0  0  0  0  0  0  0  0  0
   -8.8622    8.2089  -14.4431 H   0  0  0  0  0  0  0  0  0  0  0  0
   -8.4681    4.8018  -19.7684 H   0  0  0  0  0  0  0  0  0  0  0  0
   -8.1852    3.3995  -18.7298 H   0  0  0  0  0  0  0  0  0  0  0  0
   -7.0860    3.7851  -16.4119 H   0  0  0  0  0  0  0  0  0  0  0  0
   -6.6108    5.4223  -15.9571 H   0  0  0  0  0  0  0  0  0  0  0  0
  -10.2184    6.6571  -15.4737 H   0  0  0  0  0  0  0  0  0  0  0  0
   -9.1081    6.9919  -16.7885 H   0  0  0  0  0  0  0  0  0  0  0  0
   -6.6818    5.5801   -9.9753 H   0  0  0  0  0  0  0  0  0  0  0  0
   -6.6634    5.2132  -11.6975 H   0  0  0  0  0  0  0  0  0  0  0  0
   -7.6128    3.0061  -11.3371 H   0  0  0  0  0  0  0  0  0  0  0  0
   -6.3505    3.2110  -10.1016 H   0  0  0  0  0  0  0  0  0  0  0  0
   -6.8138    6.0866  -13.8700 H   0  0  0  0  0  0  0  0  0  0  0  0
   -7.6538    7.1815  -12.7846 H   0  0  0  0  0  0  0  0  0  0  0  0
  -10.1395    5.6972  -18.1774 H   0  0  0  0  0  0  0  0  0  0  0  0
  -10.5205    4.0199  -18.5310 H   0  0  0  0  0  0  0  0  0  0  0  0
   -9.9916    4.1013  -14.3362 H   0  0  0  0  0  0  0  0  0  0  0  0
   -8.4986    6.8055  -11.0440 H   0  0  0  0  0  0  0  0  0  0  0  0
  1 16  1  0  0  0  0
  1 19  3  0  0  0  0
  2  4  2  0  0  0  0
  2 20  1  0  0  0  0
  3 20  2  0  0  0  0
  3 21  1  0  0  0  0
  4  6  1  0  0  0  0
  4 21  1  0  0  0  0
  5 17  1  0  0  0  0
  5 22  1  0  0  0  0
  5 23  2  0  0  0  0
  6 17  1  0  0  0  0
  7  9  1  0  0  0  0
  7 10  1  0  0  0  0
  8 11  1  0  0  0  0
  8 14  1  0  0  0  0
  9 15  1  0  0  0  0
 10 18  1  0  0  0  0
 11 18  1  0  0  0  0
 12 13  1  0  0  0  0
 12 17  1  0  0  0  0
 13 21  1  0  0  0  0
 14 22  1  0  0  0  0
 15 24  1  0  0  0  0
 16 18  1  0  0  0  0
 16 22  1  0  0  0  0
 18 24  1  0  0  0  0
  2 25  1  0  0  0  0
  3 26  1  0  0  0  0
  6 27  1  0  0  0  0
  6 28  1  0  0  0  0
  7 29  1  0  0  0  0
  7 30  1  0  0  0  0
  8 31  1  0  0  0  0
  8 32  1  0  0  0  0
  9 33  1  0  0  0  0
  9 34  1  0  0  0  0
 10 35  1  0  0  0  0
 10 36  1  0  0  0  0
 11 37  1  0  0  0  0
 11 38  1  0  0  0  0
 12 39  1  0  0  0  0
 12 40  1  0  0  0  0
 13 41  1  0  0  0  0
 13 42  1  0  0  0  0
 14 43  1  0  0  0  0
 14 44  1  0  0  0  0
 15 45  1  0  0  0  0
 15 46  1  0  0  0  0
 16 47  1  0  0  0  0
 17 48  1  0  0  0  0
M  END
> <id>
EN300-26681536

> <smiles>
O=C(C1CCN2C=NC=C2C1)N3CCCC4(CCCCO4)C3C#N

> <IUPAC Name>
8-{5H,6H,7H,8H-imidazo[1,5-a]pyridine-7-carbonyl}-1-oxa-8-azaspiro[5.5]undecane-7-carbonitrile

> <CAS>
1951654-43-5

> <URL>
https://www.enaminestore.com/catalog/EN300-26681536

> <ROCS_ShapeQuery>
_x0404_0B

> <ROCS_TanimotoCombo>
0.456 

> <ROCS_ShapeTanimoto>
0.371 

> <ROCS_ColorTanimoto>
0.085 

> <ROCS_RefTversky>
0.327 

> <ROCS_RefColorTversky>
0.092 

> <ROCS_RefTverskyCombo>
0.419 

> <ROCS_FitTversky>
1.578 

> <ROCS_FitColorTversky>
0.537 

> <ROCS_FitTverskyCombo>
2.115 

> <ROCS_ColorScore>
-6.626

> <ROCS_Overlap>
2183.435

> <ROCS_Rank>
65                  

$$$$
untitled-dbase-767_2
  -OEChem-08222312023D

 53 56  0     1  0  0  0  0  0999 V2000
   -8.6264    4.3622  -18.8084 C   0  0  0  0  0  0  0  0  0  0  0  0
   -9.7206    4.0198  -18.0141 C   0  0  0  0  0  0  0  0  0  0  0  0
   -7.5888    5.1265  -18.2745 C   0  0  0  0  0  0  0  0  0  0  0  0
   -8.8254    5.1306  -12.4327 C   0  0  0  0  0  0  0  0  0  0  0  0
   -8.8478    4.4099  -11.1939 C   0  0  0  0  0  0  0  0  0  0  0  0
   -9.7775    4.4419  -16.6859 C   0  0  0  0  0  0  0  0  0  0  0  0
   -7.6457    5.5485  -16.9462 C   0  0  0  0  0  0  0  0  0  0  0  0
   -8.7400    5.2062  -16.1519 C   0  0  0  0  0  0  0  0  0  0  0  0
   -8.8011    5.2746  -10.1161 C   0  0  0  0  0  0  0  0  0  0  0  0
   -8.7394    6.4947  -12.2396 C   0  0  0  0  0  0  0  0  0  0  0  0
   -8.8695    4.6189  -13.7975 C   0  0  0  0  0  0  0  0  0  0  0  0
   -8.7511    7.0124  -14.4184 C   0  0  0  0  0  0  0  0  0  0  0  0
   -8.9448    2.9249  -11.0053 C   0  0  0  0  0  0  0  0  0  0  0  0
   -8.8026    4.8658   -8.6753 C   0  0  0  0  0  0  0  0  0  0  0  0
   -8.6068    2.4965   -9.5683 C   0  0  0  0  0  0  0  0  0  0  0  0
   -9.2851    3.4070   -8.5244 C   0  0  1  0  0  0  0  0  0  0  0  0
  -10.9630    4.0593  -15.8600 C   0  0  0  0  0  0  0  0  0  0  0  0
   -6.5185    6.3658  -16.4033 C   0  0  0  0  0  0  0  0  0  0  0  0
   -9.5382    1.4588   -6.9665 C   0  0  0  0  0  0  0  0  0  0  0  0
   -9.7438    3.7993   -6.0910 C   0  0  0  0  0  0  0  0  0  0  0  0
   -7.5099    2.9255   -6.8207 C   0  0  0  0  0  0  0  0  0  0  0  0
   -9.0207    2.9004   -7.1082 C   0  0  0  0  0  0  0  0  0  0  0  0
   -8.7103    7.4548  -13.1956 N   0  0  0  0  0  0  0  0  0  0  0  0
   -8.7987    5.6414  -14.7838 N   0  0  0  0  0  0  0  0  0  0  0  0
   -8.9197    3.4125  -14.0221 O   0  0  0  0  0  0  0  0  0  0  0  0
   -8.6981    6.9061  -10.5828 S   0  0  0  0  0  0  0  0  0  0  0  0
   -8.8542    8.2561  -15.6645 S   0  0  0  0  0  0  0  0  0  0  0  0
   -8.5818    4.0334  -19.8427 H   0  0  0  0  0  0  0  0  0  0  0  0
  -10.5241    3.4244  -18.4396 H   0  0  0  0  0  0  0  0  0  0  0  0
   -6.7405    5.3872  -18.9018 H   0  0  0  0  0  0  0  0  0  0  0  0
   -9.9683    2.6105  -11.2449 H   0  0  0  0  0  0  0  0  0  0  0  0
   -8.2707    2.4065  -11.6960 H   0  0  0  0  0  0  0  0  0  0  0  0
   -7.7827    4.9675   -8.2822 H   0  0  0  0  0  0  0  0  0  0  0  0
   -9.4497    5.5261   -8.0851 H   0  0  0  0  0  0  0  0  0  0  0  0
   -8.9136    1.4539   -9.4245 H   0  0  0  0  0  0  0  0  0  0  0  0
   -7.5182    2.5296   -9.4268 H   0  0  0  0  0  0  0  0  0  0  0  0
  -10.3697    3.3768   -8.6984 H   0  0  0  0  0  0  0  0  0  0  0  0
  -10.7814    3.1028  -15.3570 H   0  0  0  0  0  0  0  0  0  0  0  0
  -11.1773    4.8200  -15.0998 H   0  0  0  0  0  0  0  0  0  0  0  0
  -11.8625    3.9640  -16.4801 H   0  0  0  0  0  0  0  0  0  0  0  0
   -6.7144    7.4326  -16.5594 H   0  0  0  0  0  0  0  0  0  0  0  0
   -6.3823    6.1880  -15.3297 H   0  0  0  0  0  0  0  0  0  0  0  0
   -5.5716    6.1080  -16.8930 H   0  0  0  0  0  0  0  0  0  0  0  0
   -9.3623    1.0669   -5.9585 H   0  0  0  0  0  0  0  0  0  0  0  0
   -9.0387    0.7898   -7.6762 H   0  0  0  0  0  0  0  0  0  0  0  0
  -10.6153    1.4068   -7.1611 H   0  0  0  0  0  0  0  0  0  0  0  0
   -9.5679    3.4540   -5.0660 H   0  0  0  0  0  0  0  0  0  0  0  0
   -9.3902    4.8341   -6.1594 H   0  0  0  0  0  0  0  0  0  0  0  0
  -10.8265    3.8051   -6.2596 H   0  0  0  0  0  0  0  0  0  0  0  0
   -7.2960    2.5654   -5.8080 H   0  0  0  0  0  0  0  0  0  0  0  0
   -7.1021    3.9389   -6.9071 H   0  0  0  0  0  0  0  0  0  0  0  0
   -6.9649    2.2857   -7.5239 H   0  0  0  0  0  0  0  0  0  0  0  0
   -8.8533    9.2996  -14.8304 H   0  0  0  0  0  0  0  0  0  0  0  0
  1  2  1  0  0  0  0
  1  3  2  0  0  0  0
  2  6  2  0  0  0  0
  3  7  1  0  0  0  0
  4  5  1  0  0  0  0
  4 10  2  0  0  0  0
  4 11  1  0  0  0  0
  5  9  2  0  0  0  0
  5 13  1  0  0  0  0
  6  8  1  0  0  0  0
  6 17  1  0  0  0  0
  7  8  2  0  0  0  0
  7 18  1  0  0  0  0
  8 24  1  0  0  0  0
  9 14  1  0  0  0  0
  9 26  1  0  0  0  0
 10 23  1  0  0  0  0
 10 26  1  0  0  0  0
 11 24  1  0  0  0  0
 11 25  2  0  0  0  0
 12 23  2  0  0  0  0
 12 24  1  0  0  0  0
 12 27  1  0  0  0  0
 13 15  1  0  0  0  0
 14 16  1  0  0  0  0
 15 16  1  0  0  0  0
 16 22  1  0  0  0  0
 19 22  1  0  0  0  0
 20 22  1  0  0  0  0
 21 22  1  0  0  0  0
  1 28  1  0  0  0  0
  2 29  1  0  0  0  0
  3 30  1  0  0  0  0
 13 31  1  0  0  0  0
 13 32  1  0  0  0  0
 14 33  1  0  0  0  0
 14 34  1  0  0  0  0
 15 35  1  0  0  0  0
 15 36  1  0  0  0  0
 16 37  1  0  0  0  0
 17 38  1  0  0  0  0
 17 39  1  0  0  0  0
 17 40  1  0  0  0  0
 18 41  1  0  0  0  0
 18 42  1  0  0  0  0
 18 43  1  0  0  0  0
 19 44  1  0  0  0  0
 19 45  1  0  0  0  0
 19 46  1  0  0  0  0
 20 47  1  0  0  0  0
 20 48  1  0  0  0  0
 20 49  1  0  0  0  0
 21 50  1  0  0  0  0
 21 51  1  0  0  0  0
 21 52  1  0  0  0  0
 27 53  1  0  0  0  0
M  END
> <id>
EN300-09233

> <smiles>
CC=1C=CC=C(C)C1N2C(S)=NC=3SC=4CC(CCC4C3C2=O)C(C)(C)C

> <MDLNUMBER>
MFCD06334594

> <IUPAC Name>
11-tert-butyl-4-(2,6-dimethylphenyl)-5-sulfanyl-8-thia-4,6-diazatricyclo[7.4.0.0,2,7]trideca-1(9),2(7),5-trien-3-one

> <CAS>
744227-08-5

> <Purity>
95

> <URL>
https://www.enaminestore.com/catalog/EN300-09233

> <ROCS_ShapeQuery>
_x0404_0B

> <ROCS_TanimotoCombo>
0.456 

> <ROCS_ShapeTanimoto>
0.411 

> <ROCS_ColorTanimoto>
0.045 

> <ROCS_RefTversky>
0.356 

> <ROCS_RefColorTversky>
0.050 

> <ROCS_RefTverskyCombo>
0.406 

> <ROCS_FitTversky>
1.591 

> <ROCS_FitColorTversky>
0.316 

> <ROCS_FitTverskyCombo>
1.907 

> <ROCS_ColorScore>
-3.604

> <ROCS_Overlap>
2382.083

> <ROCS_Rank>
66                  

$$$$
untitled-dbase-264_3
  -OEChem-08222312023D

 38 41  0     0  0  0  0  0  0999 V2000
   -9.3975    4.1019  -16.3618 C   0  0  0  0  0  0  0  0  0  0  0  0
   -8.2648    4.5378  -17.0490 C   0  0  0  0  0  0  0  0  0  0  0  0
   -9.5458    4.3933  -15.0057 C   0  0  0  0  0  0  0  0  0  0  0  0
   -7.4283    5.5564  -15.0242 C   0  0  0  0  0  0  0  0  0  0  0  0
   -8.8841    4.6851  -10.6557 C   0  0  0  0  0  0  0  0  0  0  0  0
   -8.9838    3.8479   -9.4968 C   0  0  0  0  0  0  0  0  0  0  0  0
   -7.2801    5.2650  -16.3802 C   0  0  0  0  0  0  0  0  0  0  0  0
   -8.5612    5.1205  -14.3369 C   0  0  0  0  0  0  0  0  0  0  0  0
   -8.9705    4.6021   -8.3376 C   0  0  0  0  0  0  0  0  0  0  0  0
   -8.8243    6.0243  -10.3267 C   0  0  0  0  0  0  0  0  0  0  0  0
   -8.8226    4.3068  -12.0625 C   0  0  0  0  0  0  0  0  0  0  0  0
   -8.7142    6.7506  -12.4423 C   0  0  0  0  0  0  0  0  0  0  0  0
   -9.0563    2.3492   -9.4580 C   0  0  0  0  0  0  0  0  0  0  0  0
   -9.0654    4.0538   -6.9478 C   0  0  0  0  0  0  0  0  0  0  0  0
   -9.4925    1.8247   -8.0811 C   0  0  0  0  0  0  0  0  0  0  0  0
   -8.7646    2.5482   -6.9411 C   0  0  0  0  0  0  0  0  0  0  0  0
   -6.0692    5.7308  -17.1154 C   0  0  0  0  0  0  0  0  0  0  0  0
   -8.7530    7.0728  -11.1825 N   0  0  0  0  0  0  0  0  0  0  0  0
   -8.7146    5.4210  -12.9401 N   0  0  0  0  0  0  0  0  0  0  0  0
   -8.8158    3.1268  -12.4027 O   0  0  0  0  0  0  0  0  0  0  0  0
   -6.0582    5.3742  -18.4340 F   0  0  0  0  0  0  0  0  0  0  0  0
   -5.9162    7.0882  -17.1127 F   0  0  0  0  0  0  0  0  0  0  0  0
   -4.9121    5.2311  -16.5916 F   0  0  0  0  0  0  0  0  0  0  0  0
   -8.8702    6.2721   -8.6376 S   0  0  0  0  0  0  0  0  0  0  0  0
   -8.7679    8.1081  -13.5669 S   0  0  0  0  0  0  0  0  0  0  0  0
  -10.1645    3.5360  -16.8826 H   0  0  0  0  0  0  0  0  0  0  0  0
   -8.1579    4.3054  -18.1050 H   0  0  0  0  0  0  0  0  0  0  0  0
  -10.4327    4.0483  -14.4802 H   0  0  0  0  0  0  0  0  0  0  0  0
   -6.6587    6.1230  -14.5045 H   0  0  0  0  0  0  0  0  0  0  0  0
   -9.7756    2.0166  -10.2167 H   0  0  0  0  0  0  0  0  0  0  0  0
   -8.0840    1.9121   -9.7112 H   0  0  0  0  0  0  0  0  0  0  0  0
   -8.3373    4.5724   -6.3118 H   0  0  0  0  0  0  0  0  0  0  0  0
  -10.0600    4.2274   -6.5225 H   0  0  0  0  0  0  0  0  0  0  0  0
  -10.5761    1.9461   -7.9709 H   0  0  0  0  0  0  0  0  0  0  0  0
   -9.2824    0.7494   -8.0151 H   0  0  0  0  0  0  0  0  0  0  0  0
   -7.6836    2.3909   -7.0267 H   0  0  0  0  0  0  0  0  0  0  0  0
   -9.0771    2.1137   -5.9830 H   0  0  0  0  0  0  0  0  0  0  0  0
   -8.8352    9.0654  -12.6375 H   0  0  0  0  0  0  0  0  0  0  0  0
  1  2  1  0  0  0  0
  1  3  2  0  0  0  0
  2  7  2  0  0  0  0
  3  8  1  0  0  0  0
  4  7  1  0  0  0  0
  4  8  2  0  0  0  0
  5  6  1  0  0  0  0
  5 10  2  0  0  0  0
  5 11  1  0  0  0  0
  6  9  2  0  0  0  0
  6 13  1  0  0  0  0
  7 17  1  0  0  0  0
  8 19  1  0  0  0  0
  9 14  1  0  0  0  0
  9 24  1  0  0  0  0
 10 18  1  0  0  0  0
 10 24  1  0  0  0  0
 11 19  1  0  0  0  0
 11 20  2  0  0  0  0
 12 18  2  0  0  0  0
 12 19  1  0  0  0  0
 12 25  1  0  0  0  0
 13 15  1  0  0  0  0
 14 16  1  0  0  0  0
 15 16  1  0  0  0  0
 17 21  1  0  0  0  0
 17 22  1  0  0  0  0
 17 23  1  0  0  0  0
  1 26  1  0  0  0  0
  2 27  1  0  0  0  0
  3 28  1  0  0  0  0
  4 29  1  0  0  0  0
 13 30  1  0  0  0  0
 13 31  1  0  0  0  0
 14 32  1  0  0  0  0
 14 33  1  0  0  0  0
 15 34  1  0  0  0  0
 15 35  1  0  0  0  0
 16 36  1  0  0  0  0
 16 37  1  0  0  0  0
 25 38  1  0  0  0  0
M  END
> <id>
EN300-03155

> <smiles>
FC(F)(F)C=1C=CC=C(C1)N2C(S)=NC=3SC=4CCCCC4C3C2=O

> <MDLNUMBER>
MFCD03951034

> <IUPAC Name>
5-sulfanyl-4-[3-(trifluoromethyl)phenyl]-8-thia-4,6-diazatricyclo[7.4.0.0,2,7]trideca-1(9),2(7),5-trien-3-one

> <CAS>
721426-49-9

> <Purity>
95

> <URL>
https://www.enaminestore.com/catalog/EN300-03155

> <ROCS_ShapeQuery>
_x0404_0B

> <ROCS_TanimotoCombo>
0.456 

> <ROCS_ShapeTanimoto>
0.391 

> <ROCS_ColorTanimoto>
0.064 

> <ROCS_RefTversky>
0.342 

> <ROCS_RefColorTversky>
0.069 

> <ROCS_RefTverskyCombo>
0.411 

> <ROCS_FitTversky>
1.590 

> <ROCS_FitColorTversky>
0.478 

> <ROCS_FitTverskyCombo>
2.068 

> <ROCS_ColorScore>
-5.001

> <ROCS_Overlap>
2282.420

> <ROCS_Rank>
67                  

$$$$
untitled-dbase-157312_6
  -OEChem-08222312023D

 47 50  0     0  0  0  0  0  0999 V2000
   -7.1629    5.3579  -17.7668 C   0  0  0  0  0  0  0  0  0  0  0  0
   -9.3815    4.4320  -18.0068 C   0  0  0  0  0  0  0  0  0  0  0  0
   -8.3900    4.6401  -15.8134 C   0  0  0  0  0  0  0  0  0  0  0  0
   -7.2414    5.1880  -16.3846 C   0  0  0  0  0  0  0  0  0  0  0  0
   -9.4600    4.2621  -16.6245 C   0  0  0  0  0  0  0  0  0  0  0  0
   -8.2329    4.9799  -18.5779 C   0  0  0  0  0  0  0  0  0  0  0  0
   -8.4726    4.4635  -14.3660 C   0  0  0  0  0  0  0  0  0  0  0  0
   -8.9284    5.3114  -13.4277 C   0  0  0  0  0  0  0  0  0  0  0  0
   -8.0186    3.2606  -13.6235 C   0  0  0  0  0  0  0  0  0  0  0  0
   -7.9255    5.6440  -11.1369 C   0  0  0  0  0  0  0  0  0  0  0  0
  -10.2520    4.6236  -11.3862 C   0  0  0  0  0  0  0  0  0  0  0  0
   -7.7561    5.0880   -9.7168 C   0  0  0  0  0  0  0  0  0  0  0  0
  -10.2807    4.8767   -9.8748 C   0  0  0  0  0  0  0  0  0  0  0  0
   -9.1890    2.4079   -8.0780 C   0  0  0  0  0  0  0  0  0  0  0  0
   -8.7456    3.4708   -7.1132 C   0  0  0  0  0  0  0  0  0  0  0  0
   -8.8520    4.7922  -12.0147 C   0  0  0  0  0  0  0  0  0  0  0  0
   -9.0141    4.3961   -9.1690 C   0  0  0  0  0  0  0  0  0  0  0  0
   -6.0736    5.6062  -15.5495 C   0  0  0  0  0  0  0  0  0  0  0  0
  -10.7076    3.6702  -16.0505 C   0  0  0  0  0  0  0  0  0  0  0  0
   -8.2505    3.4992  -12.2798 N   0  0  0  0  0  0  0  0  0  0  0  0
   -7.5419    2.2579  -14.1289 O   0  0  0  0  0  0  0  0  0  0  0  0
   -8.8813    2.9728   -9.3508 O   0  0  0  0  0  0  0  0  0  0  0  0
   -9.1334    4.6796   -7.7631 O   0  0  0  0  0  0  0  0  0  0  0  0
   -9.4093    6.5792  -13.6227 O   0  0  0  0  0  0  0  0  0  0  0  0
   -8.1368    5.1900  -20.2831 Cl  0  0  0  0  0  0  0  0  0  0  0  0
   -6.2657    5.7860  -18.2083 H   0  0  0  0  0  0  0  0  0  0  0  0
  -10.2182    4.1353  -18.6357 H   0  0  0  0  0  0  0  0  0  0  0  0
   -8.3169    6.6716  -11.0623 H   0  0  0  0  0  0  0  0  0  0  0  0
   -6.9311    5.7467  -11.6017 H   0  0  0  0  0  0  0  0  0  0  0  0
  -10.6483    3.6148  -11.5901 H   0  0  0  0  0  0  0  0  0  0  0  0
  -10.9615    5.3154  -11.8693 H   0  0  0  0  0  0  0  0  0  0  0  0
   -6.9054    4.3861   -9.6869 H   0  0  0  0  0  0  0  0  0  0  0  0
   -7.4677    5.9163   -9.0476 H   0  0  0  0  0  0  0  0  0  0  0  0
  -10.4180    5.9548   -9.7037 H   0  0  0  0  0  0  0  0  0  0  0  0
  -11.1630    4.3927   -9.4305 H   0  0  0  0  0  0  0  0  0  0  0  0
   -8.6730    1.4543   -7.9427 H   0  0  0  0  0  0  0  0  0  0  0  0
  -10.2710    2.2442   -8.0299 H   0  0  0  0  0  0  0  0  0  0  0  0
   -9.2165    3.3898   -6.1313 H   0  0  0  0  0  0  0  0  0  0  0  0
   -7.6573    3.4804   -6.9955 H   0  0  0  0  0  0  0  0  0  0  0  0
   -6.1818    6.6531  -15.2456 H   0  0  0  0  0  0  0  0  0  0  0  0
   -5.9902    4.9861  -14.6493 H   0  0  0  0  0  0  0  0  0  0  0  0
   -5.1335    5.4964  -16.1029 H   0  0  0  0  0  0  0  0  0  0  0  0
  -10.6191    2.5795  -15.9982 H   0  0  0  0  0  0  0  0  0  0  0  0
  -10.8995    4.0557  -15.0423 H   0  0  0  0  0  0  0  0  0  0  0  0
  -11.5817    3.9228  -16.6623 H   0  0  0  0  0  0  0  0  0  0  0  0
   -8.0207    2.8266  -11.5527 H   0  0  0  0  0  0  0  0  0  0  0  0
   -9.3826    6.8078  -14.5605 H   0  0  0  0  0  0  0  0  0  0  0  0
  1  4  2  0  0  0  0
  1  6  1  0  0  0  0
  2  5  1  0  0  0  0
  2  6  2  0  0  0  0
  3  4  1  0  0  0  0
  3  5  2  0  0  0  0
  3  7  1  0  0  0  0
  4 18  1  0  0  0  0
  5 19  1  0  0  0  0
  6 25  1  0  0  0  0
  7  8  2  0  0  0  0
  7  9  1  0  0  0  0
  8 16  1  0  0  0  0
  8 24  1  0  0  0  0
  9 20  1  0  0  0  0
  9 21  2  0  0  0  0
 10 12  1  0  0  0  0
 10 16  1  0  0  0  0
 11 13  1  0  0  0  0
 11 16  1  0  0  0  0
 12 17  1  0  0  0  0
 13 17  1  0  0  0  0
 14 15  1  0  0  0  0
 14 22  1  0  0  0  0
 15 23  1  0  0  0  0
 16 20  1  0  0  0  0
 17 22  1  0  0  0  0
 17 23  1  0  0  0  0
  1 26  1  0  0  0  0
  2 27  1  0  0  0  0
 10 28  1  0  0  0  0
 10 29  1  0  0  0  0
 11 30  1  0  0  0  0
 11 31  1  0  0  0  0
 12 32  1  0  0  0  0
 12 33  1  0  0  0  0
 13 34  1  0  0  0  0
 13 35  1  0  0  0  0
 14 36  1  0  0  0  0
 14 37  1  0  0  0  0
 15 38  1  0  0  0  0
 15 39  1  0  0  0  0
 18 40  1  0  0  0  0
 18 41  1  0  0  0  0
 18 42  1  0  0  0  0
 19 43  1  0  0  0  0
 19 44  1  0  0  0  0
 19 45  1  0  0  0  0
 20 46  1  0  0  0  0
 24 47  1  0  0  0  0
M  END
> <id>
EN300-28235624

> <smiles>
CC=1C=C(Cl)C=C(C)C1C2=C(O)C3(CCC4(CC3)OCCO4)NC2=O

> <IUPAC Name>
11-(4-chloro-2,6-dimethylphenyl)-12-hydroxy-1,4-dioxa-9-azadispiro[4.2.4^{8}.2^{5}]tetradec-11-en-10-one

> <CAS>
907187-07-9

> <Purity>
95

> <URL>
https://www.enaminestore.com/catalog/EN300-28235624

> <ROCS_ShapeQuery>
_x0404_0B

> <ROCS_TanimotoCombo>
0.455 

> <ROCS_ShapeTanimoto>
0.377 

> <ROCS_ColorTanimoto>
0.078 

> <ROCS_RefTversky>
0.333 

> <ROCS_RefColorTversky>
0.085 

> <ROCS_RefTverskyCombo>
0.418 

> <ROCS_FitTversky>
1.551 

> <ROCS_FitColorTversky>
0.497 

> <ROCS_FitTverskyCombo>
2.049 

> <ROCS_ColorScore>
-6.137

> <ROCS_Overlap>
2222.926

> <ROCS_Rank>
68                  

$$$$
untitled-dbase-118820_126
  -OEChem-08222312023D

 47 49  0     0  0  0  0  0  0999 V2000
   -9.0454    5.5657   -7.5889 C   0  0  0  0  0  0  0  0  0  0  0  0
   -8.9942    4.2565   -9.9005 C   0  0  0  0  0  0  0  0  0  0  0  0
   -8.8990    5.6349   -9.7945 C   0  0  0  0  0  0  0  0  0  0  0  0
   -9.1234    3.5419   -8.7137 C   0  0  0  0  0  0  0  0  0  0  0  0
   -8.8117    4.9855  -11.8951 C   0  0  0  0  0  0  0  0  0  0  0  0
   -7.9297    5.0595  -17.3370 C   0  0  0  0  0  0  0  0  0  0  0  0
   -7.5135    5.7954  -13.8468 C   0  0  0  0  0  0  0  0  0  0  0  0
   -9.3798    4.1676  -14.1412 C   0  0  0  0  0  0  0  0  0  0  0  0
   -7.8216    6.3683  -15.2289 C   0  0  0  0  0  0  0  0  0  0  0  0
   -9.6634    4.7659  -15.5178 C   0  0  0  0  0  0  0  0  0  0  0  0
   -6.6702    6.9272  -19.1019 C   0  0  0  0  0  0  0  0  0  0  0  0
   -4.5296    5.7469  -18.5240 C   0  0  0  0  0  0  0  0  0  0  0  0
   -6.3750    4.4955  -19.6800 C   0  0  0  0  0  0  0  0  0  0  0  0
   -8.6557    7.4679  -11.4799 C   0  0  0  0  0  0  0  0  0  0  0  0
   -6.0418    5.6003  -18.6785 C   0  0  0  0  0  0  0  0  0  0  0  0
   -8.9171    6.3657   -8.6698 N   0  0  0  0  0  0  0  0  0  0  0  0
   -9.1488    4.2156   -7.5386 N   0  0  0  0  0  0  0  0  0  0  0  0
   -8.9383    3.8654  -11.2146 N   0  0  0  0  0  0  0  0  0  0  0  0
   -8.7827    6.0849  -11.0788 N   0  0  0  0  0  0  0  0  0  0  0  0
   -8.7091    5.1558  -13.2805 N   0  0  0  0  0  0  0  0  0  0  0  0
   -8.4521    5.3645  -16.0792 N   0  0  0  0  0  0  0  0  0  0  0  0
   -9.2278    2.1403   -8.7260 N   0  0  0  0  0  0  0  0  0  0  0  0
   -8.6029    4.6774  -18.2925 O   0  0  0  0  0  0  0  0  0  0  0  0
   -6.5724    5.2321  -17.4001 O   0  0  0  0  0  0  0  0  0  0  0  0
   -9.0691    6.0718   -6.6297 H   0  0  0  0  0  0  0  0  0  0  0  0
   -6.7008    5.0674  -13.9372 H   0  0  0  0  0  0  0  0  0  0  0  0
   -7.1749    6.5898  -13.1738 H   0  0  0  0  0  0  0  0  0  0  0  0
  -10.3251    3.8520  -13.6884 H   0  0  0  0  0  0  0  0  0  0  0  0
   -8.7445    3.2814  -14.2360 H   0  0  0  0  0  0  0  0  0  0  0  0
   -8.4721    7.2397  -15.1377 H   0  0  0  0  0  0  0  0  0  0  0  0
   -6.9035    6.6900  -15.7268 H   0  0  0  0  0  0  0  0  0  0  0  0
  -10.0360    3.9947  -16.1867 H   0  0  0  0  0  0  0  0  0  0  0  0
  -10.4125    5.5528  -15.4480 H   0  0  0  0  0  0  0  0  0  0  0  0
   -7.7557    6.8261  -19.2138 H   0  0  0  0  0  0  0  0  0  0  0  0
   -6.4680    7.7197  -18.3740 H   0  0  0  0  0  0  0  0  0  0  0  0
   -6.2873    7.2475  -20.0776 H   0  0  0  0  0  0  0  0  0  0  0  0
   -4.0745    4.7972  -18.2203 H   0  0  0  0  0  0  0  0  0  0  0  0
   -4.2859    6.4712  -17.7383 H   0  0  0  0  0  0  0  0  0  0  0  0
   -4.0582    6.0748  -19.4562 H   0  0  0  0  0  0  0  0  0  0  0  0
   -5.9244    3.5436  -19.3766 H   0  0  0  0  0  0  0  0  0  0  0  0
   -7.4560    4.3510  -19.7762 H   0  0  0  0  0  0  0  0  0  0  0  0
   -5.9656    4.7299  -20.6693 H   0  0  0  0  0  0  0  0  0  0  0  0
   -7.5912    7.7150  -11.5062 H   0  0  0  0  0  0  0  0  0  0  0  0
   -9.1041    7.6030  -12.4681 H   0  0  0  0  0  0  0  0  0  0  0  0
   -9.1790    8.1026  -10.7594 H   0  0  0  0  0  0  0  0  0  0  0  0
   -9.2561    1.6560   -9.6030 H   0  0  0  0  0  0  0  0  0  0  0  0
   -9.3674    1.6493   -7.8633 H   0  0  0  0  0  0  0  0  0  0  0  0
  1 16  1  0  0  0  0
  1 17  2  0  0  0  0
  2  3  1  0  0  0  0
  2  4  2  0  0  0  0
  2 18  1  0  0  0  0
  3 16  2  0  0  0  0
  3 19  1  0  0  0  0
  4 17  1  0  0  0  0
  4 22  1  0  0  0  0
  5 18  2  0  0  0  0
  5 19  1  0  0  0  0
  5 20  1  0  0  0  0
  6 21  1  0  0  0  0
  6 23  2  0  0  0  0
  6 24  1  0  0  0  0
  7  9  1  0  0  0  0
  7 20  1  0  0  0  0
  8 10  1  0  0  0  0
  8 20  1  0  0  0  0
  9 21  1  0  0  0  0
 10 21  1  0  0  0  0
 11 15  1  0  0  0  0
 12 15  1  0  0  0  0
 13 15  1  0  0  0  0
 14 19  1  0  0  0  0
 15 24  1  0  0  0  0
  1 25  1  0  0  0  0
  7 26  1  0  0  0  0
  7 27  1  0  0  0  0
  8 28  1  0  0  0  0
  8 29  1  0  0  0  0
  9 30  1  0  0  0  0
  9 31  1  0  0  0  0
 10 32  1  0  0  0  0
 10 33  1  0  0  0  0
 11 34  1  0  0  0  0
 11 35  1  0  0  0  0
 11 36  1  0  0  0  0
 12 37  1  0  0  0  0
 12 38  1  0  0  0  0
 12 39  1  0  0  0  0
 13 40  1  0  0  0  0
 13 41  1  0  0  0  0
 13 42  1  0  0  0  0
 14 43  1  0  0  0  0
 14 44  1  0  0  0  0
 14 45  1  0  0  0  0
 22 46  1  0  0  0  0
 22 47  1  0  0  0  0
M  END
> <id>
EN300-7355407

> <smiles>
CN1C(=NC=2C(N)=NC=NC12)N3CCN(CC3)C(=O)OC(C)(C)C

> <MDLNUMBER>
MFCD31924321

> <IUPAC Name>
tert-butyl 4-(6-amino-9-methyl-9H-purin-8-yl)piperazine-1-carboxylate

> <CAS>
2344680-40-4

> <Purity>
95

> <URL>
https://www.enaminestore.com/catalog/EN300-7355407

> <ROCS_ShapeQuery>
_x0404_0B

> <ROCS_TanimotoCombo>
0.455 

> <ROCS_ShapeTanimoto>
0.396 

> <ROCS_ColorTanimoto>
0.059 

> <ROCS_RefTversky>
0.343 

> <ROCS_RefColorTversky>
0.067 

> <ROCS_RefTverskyCombo>
0.410 

> <ROCS_FitTversky>
1.635 

> <ROCS_FitColorTversky>
0.339 

> <ROCS_FitTverskyCombo>
1.974 

> <ROCS_ColorScore>
-4.835

> <ROCS_Overlap>
2294.095

> <ROCS_Rank>
69                  

$$$$
untitled-dbase-77499_92
  -OEChem-08222312023D

 53 55  0     0  0  0  0  0  0999 V2000
   -8.7624    5.1814  -16.4515 B   0  0  0  0  0  0  0  0  0  0  0  0
   -9.1161    6.9903  -14.6709 C   0  0  0  0  0  0  0  0  0  0  0  0
   -9.2005    7.4293  -13.3477 C   0  0  0  0  0  0  0  0  0  0  0  0
   -8.6663    4.7119  -13.9391 C   0  0  0  0  0  0  0  0  0  0  0  0
   -8.8510    5.6423  -14.9643 C   0  0  0  0  0  0  0  0  0  0  0  0
   -9.0162    6.5006  -12.3389 C   0  0  0  0  0  0  0  0  0  0  0  0
   -8.7521    5.1559  -12.6316 C   0  0  0  0  0  0  0  0  0  0  0  0
   -8.7398    5.1255   -8.9566 C   0  0  0  0  0  0  0  0  0  0  0  0
   -9.0552    6.7130  -10.8623 C   0  0  0  0  0  0  0  0  0  0  0  0
   -8.5957    4.3710  -11.3717 C   0  0  0  0  0  0  0  0  0  0  0  0
   -7.9320    4.8756  -18.5562 C   0  0  0  0  0  0  0  0  0  0  0  0
   -9.3488    4.2180  -18.4367 C   0  0  0  0  0  0  0  0  0  0  0  0
   -6.8473    3.9582  -19.1385 C   0  0  0  0  0  0  0  0  0  0  0  0
   -7.8982    6.2067  -19.3408 C   0  0  0  0  0  0  0  0  0  0  0  0
   -9.3422    2.6761  -18.3310 C   0  0  0  0  0  0  0  0  0  0  0  0
  -10.3323    4.6093  -19.5487 C   0  0  0  0  0  0  0  0  0  0  0  0
  -10.7945    3.1553   -8.7116 C   0  0  0  0  0  0  0  0  0  0  0  0
   -9.0057    1.6746   -7.7540 C   0  0  0  0  0  0  0  0  0  0  0  0
   -9.6292    3.8041   -6.5772 C   0  0  0  0  0  0  0  0  0  0  0  0
   -9.4804    3.1151   -7.9329 C   0  0  0  0  0  0  0  0  0  0  0  0
   -8.7922    5.3767  -10.3176 N   0  0  0  0  0  0  0  0  0  0  0  0
   -8.9053    5.9812   -8.0902 O   0  0  0  0  0  0  0  0  0  0  0  0
   -7.5700    5.1854  -17.1709 O   0  0  0  0  0  0  0  0  0  0  0  0
   -9.8692    4.7324  -17.1674 O   0  0  0  0  0  0  0  0  0  0  0  0
   -8.4812    3.8079   -8.6892 O   0  0  0  0  0  0  0  0  0  0  0  0
   -9.2609    7.7216  -15.4647 H   0  0  0  0  0  0  0  0  0  0  0  0
   -9.4048    8.4704  -13.1227 H   0  0  0  0  0  0  0  0  0  0  0  0
   -8.4600    3.6638  -14.1390 H   0  0  0  0  0  0  0  0  0  0  0  0
   -8.2723    7.3960  -10.5196 H   0  0  0  0  0  0  0  0  0  0  0  0
  -10.0369    7.0502  -10.5161 H   0  0  0  0  0  0  0  0  0  0  0  0
   -9.3603    3.5952  -11.2691 H   0  0  0  0  0  0  0  0  0  0  0  0
   -7.5941    3.9422  -11.2721 H   0  0  0  0  0  0  0  0  0  0  0  0
   -5.9121    4.5024  -19.1794 H   0  0  0  0  0  0  0  0  0  0  0  0
   -7.1428    3.6538  -20.1347 H   0  0  0  0  0  0  0  0  0  0  0  0
   -6.7430    3.0893  -18.5009 H   0  0  0  0  0  0  0  0  0  0  0  0
   -6.8798    6.5831  -19.3696 H   0  0  0  0  0  0  0  0  0  0  0  0
   -8.5394    6.9321  -18.8489 H   0  0  0  0  0  0  0  0  0  0  0  0
   -8.2515    6.0378  -20.3539 H   0  0  0  0  0  0  0  0  0  0  0  0
  -10.3635    2.3151  -18.2526 H   0  0  0  0  0  0  0  0  0  0  0  0
   -8.7829    2.3769  -17.4494 H   0  0  0  0  0  0  0  0  0  0  0  0
   -8.8756    2.2554  -19.2170 H   0  0  0  0  0  0  0  0  0  0  0  0
  -11.2753    4.1059  -19.3763 H   0  0  0  0  0  0  0  0  0  0  0  0
   -9.9203    4.3079  -20.5035 H   0  0  0  0  0  0  0  0  0  0  0  0
  -10.4758    5.6824  -19.5287 H   0  0  0  0  0  0  0  0  0  0  0  0
  -11.1386    4.1876   -8.8421 H   0  0  0  0  0  0  0  0  0  0  0  0
  -10.6920    2.6954   -9.6999 H   0  0  0  0  0  0  0  0  0  0  0  0
  -11.5882    2.6314   -8.1667 H   0  0  0  0  0  0  0  0  0  0  0  0
   -8.0631    1.6410   -7.1958 H   0  0  0  0  0  0  0  0  0  0  0  0
   -8.8065    1.2060   -8.7245 H   0  0  0  0  0  0  0  0  0  0  0  0
   -9.7458    1.0685   -7.2216 H   0  0  0  0  0  0  0  0  0  0  0  0
   -8.6868    3.7753   -6.0184 H   0  0  0  0  0  0  0  0  0  0  0  0
   -9.9337    4.8499   -6.6875 H   0  0  0  0  0  0  0  0  0  0  0  0
  -10.3719    3.2886   -5.9575 H   0  0  0  0  0  0  0  0  0  0  0  0
  1  5  1  0  0  0  0
  1 23  1  0  0  0  0
  1 24  1  0  0  0  0
  2  3  1  0  0  0  0
  2  5  2  0  0  0  0
  3  6  2  0  0  0  0
  4  5  1  0  0  0  0
  4  7  2  0  0  0  0
  6  7  1  0  0  0  0
  6  9  1  0  0  0  0
  7 10  1  0  0  0  0
  8 21  1  0  0  0  0
  8 22  2  0  0  0  0
  8 25  1  0  0  0  0
  9 21  1  0  0  0  0
 10 21  1  0  0  0  0
 11 12  1  0  0  0  0
 11 13  1  0  0  0  0
 11 14  1  0  0  0  0
 11 23  1  0  0  0  0
 12 15  1  0  0  0  0
 12 16  1  0  0  0  0
 12 24  1  0  0  0  0
 17 20  1  0  0  0  0
 18 20  1  0  0  0  0
 19 20  1  0  0  0  0
 20 25  1  0  0  0  0
  2 26  1  0  0  0  0
  3 27  1  0  0  0  0
  4 28  1  0  0  0  0
  9 29  1  0  0  0  0
  9 30  1  0  0  0  0
 10 31  1  0  0  0  0
 10 32  1  0  0  0  0
 13 33  1  0  0  0  0
 13 34  1  0  0  0  0
 13 35  1  0  0  0  0
 14 36  1  0  0  0  0
 14 37  1  0  0  0  0
 14 38  1  0  0  0  0
 15 39  1  0  0  0  0
 15 40  1  0  0  0  0
 15 41  1  0  0  0  0
 16 42  1  0  0  0  0
 16 43  1  0  0  0  0
 16 44  1  0  0  0  0
 17 45  1  0  0  0  0
 17 46  1  0  0  0  0
 17 47  1  0  0  0  0
 18 48  1  0  0  0  0
 18 49  1  0  0  0  0
 18 50  1  0  0  0  0
 19 51  1  0  0  0  0
 19 52  1  0  0  0  0
 19 53  1  0  0  0  0
M  END
> <id>
EN300-4722462

> <smiles>
CC(C)(C)OC(=O)N1CC=2C=CC(=CC2C1)B3OC(C)(C)C(C)(C)O3

> <MDLNUMBER>
MFCD11226842

> <IUPAC Name>
tert-butyl 5-(tetramethyl-1,3,2-dioxaborolan-2-yl)-2,3-dihydro-1H-isoindole-2-carboxylate

> <CAS>
905273-91-8

> <Purity>
95

> <URL>
https://www.enaminestore.com/catalog/EN300-4722462

> <ROCS_ShapeQuery>
_x0404_0B

> <ROCS_TanimotoCombo>
0.455 

> <ROCS_ShapeTanimoto>
0.403 

> <ROCS_ColorTanimoto>
0.052 

> <ROCS_RefTversky>
0.348 

> <ROCS_RefColorTversky>
0.056 

> <ROCS_RefTverskyCombo>
0.405 

> <ROCS_FitTversky>
1.644 

> <ROCS_FitColorTversky>
0.390 

> <ROCS_FitTverskyCombo>
2.034 

> <ROCS_ColorScore>
-4.077

> <ROCS_Overlap>
2327.052

> <ROCS_Rank>
70                  

$$$$
untitled-dbase-115565_1048
  -OEChem-08222312023D

 48 50  0     0  0  0  0  0  0999 V2000
   -9.3344    4.2209  -11.8101 C   0  0  0  0  0  0  0  0  0  0  0  0
   -9.2249    3.8389  -10.4790 C   0  0  0  0  0  0  0  0  0  0  0  0
   -8.8702    4.8144   -9.5515 C   0  0  0  0  0  0  0  0  0  0  0  0
   -9.0632    5.5344  -12.1347 C   0  0  0  0  0  0  0  0  0  0  0  0
   -7.9641    4.6526  -17.2631 C   0  0  0  0  0  0  0  0  0  0  0  0
   -9.5489    2.4344  -10.0451 C   0  0  0  0  0  0  0  0  0  0  0  0
   -8.7058    4.4560   -8.1001 C   0  0  0  0  0  0  0  0  0  0  0  0
   -9.3975    3.1379   -7.7466 C   0  0  0  0  0  0  0  0  0  0  0  0
  -10.1114    5.2351  -14.3675 C   0  0  0  0  0  0  0  0  0  0  0  0
   -8.0923    6.6262  -14.1669 C   0  0  0  0  0  0  0  0  0  0  0  0
   -9.3420    4.2378  -15.2379 C   0  0  0  0  0  0  0  0  0  0  0  0
   -7.3011    5.6445  -15.0306 C   0  0  0  0  0  0  0  0  0  0  0  0
   -7.2485    6.8921  -18.4292 C   0  0  0  0  0  0  0  0  0  0  0  0
   -4.8495    6.1748  -18.2304 C   0  0  0  0  0  0  0  0  0  0  0  0
   -6.3393    5.0974  -19.9416 C   0  0  0  0  0  0  0  0  0  0  0  0
   -6.2728    5.7221  -18.5487 C   0  0  0  0  0  0  0  0  0  0  0  0
   -8.6052    6.0913   -9.9117 N   0  0  0  0  0  0  0  0  0  0  0  0
   -8.7054    6.4569  -11.2191 N   0  0  0  0  0  0  0  0  0  0  0  0
   -9.0427    2.0911   -8.7089 N   0  0  0  0  0  0  0  0  0  0  0  0
   -9.1643    5.9083  -13.4701 N   0  0  0  0  0  0  0  0  0  0  0  0
   -8.2032    4.8783  -15.9044 N   0  0  0  0  0  0  0  0  0  0  0  0
   -8.8417    4.4110  -18.0900 O   0  0  0  0  0  0  0  0  0  0  0  0
   -6.6348    4.7266  -17.5847 O   0  0  0  0  0  0  0  0  0  0  0  0
   -9.6239    3.5007  -12.5695 H   0  0  0  0  0  0  0  0  0  0  0  0
  -10.6374    2.2915  -10.0410 H   0  0  0  0  0  0  0  0  0  0  0  0
   -9.1348    1.7305  -10.7797 H   0  0  0  0  0  0  0  0  0  0  0  0
   -7.6402    4.3835   -7.8579 H   0  0  0  0  0  0  0  0  0  0  0  0
   -9.1291    5.2697   -7.4993 H   0  0  0  0  0  0  0  0  0  0  0  0
   -9.1303    2.8174   -6.7291 H   0  0  0  0  0  0  0  0  0  0  0  0
  -10.4858    3.2815   -7.7505 H   0  0  0  0  0  0  0  0  0  0  0  0
  -10.6179    5.9505  -15.0125 H   0  0  0  0  0  0  0  0  0  0  0  0
  -10.8621    4.7183  -13.7737 H   0  0  0  0  0  0  0  0  0  0  0  0
   -7.4199    7.0869  -13.4419 H   0  0  0  0  0  0  0  0  0  0  0  0
   -8.5168    7.4142  -14.7915 H   0  0  0  0  0  0  0  0  0  0  0  0
   -8.9896    3.4027  -14.6290 H   0  0  0  0  0  0  0  0  0  0  0  0
   -9.9875    3.8278  -16.0195 H   0  0  0  0  0  0  0  0  0  0  0  0
   -6.5774    6.1820  -15.6361 H   0  0  0  0  0  0  0  0  0  0  0  0
   -6.7688    4.9267  -14.4102 H   0  0  0  0  0  0  0  0  0  0  0  0
   -8.2713    6.5713  -18.6569 H   0  0  0  0  0  0  0  0  0  0  0  0
   -7.2359    7.3268  -17.4244 H   0  0  0  0  0  0  0  0  0  0  0  0
   -7.0040    7.6803  -19.1504 H   0  0  0  0  0  0  0  0  0  0  0  0
   -4.1461    5.3385  -18.3149 H   0  0  0  0  0  0  0  0  0  0  0  0
   -4.7764    6.5364  -17.1984 H   0  0  0  0  0  0  0  0  0  0  0  0
   -4.5200    6.9741  -18.9021 H   0  0  0  0  0  0  0  0  0  0  0  0
   -5.6396    4.2582  -20.0275 H   0  0  0  0  0  0  0  0  0  0  0  0
   -7.3456    4.7333  -20.1727 H   0  0  0  0  0  0  0  0  0  0  0  0
   -6.0469    5.8236  -20.7087 H   0  0  0  0  0  0  0  0  0  0  0  0
   -9.4548    1.2086   -8.4108 H   0  0  0  0  0  0  0  0  0  0  0  0
  1  2  1  0  0  0  0
  1  4  2  0  0  0  0
  2  3  2  0  0  0  0
  2  6  1  0  0  0  0
  3  7  1  0  0  0  0
  3 17  1  0  0  0  0
  4 18  1  0  0  0  0
  4 20  1  0  0  0  0
  5 21  1  0  0  0  0
  5 22  2  0  0  0  0
  5 23  1  0  0  0  0
  6 19  1  0  0  0  0
  7  8  1  0  0  0  0
  8 19  1  0  0  0  0
  9 11  1  0  0  0  0
  9 20  1  0  0  0  0
 10 12  1  0  0  0  0
 10 20  1  0  0  0  0
 11 21  1  0  0  0  0
 12 21  1  0  0  0  0
 13 16  1  0  0  0  0
 14 16  1  0  0  0  0
 15 16  1  0  0  0  0
 16 23  1  0  0  0  0
 17 18  2  0  0  0  0
  1 24  1  0  0  0  0
  6 25  1  0  0  0  0
  6 26  1  0  0  0  0
  7 27  1  0  0  0  0
  7 28  1  0  0  0  0
  8 29  1  0  0  0  0
  8 30  1  0  0  0  0
  9 31  1  0  0  0  0
  9 32  1  0  0  0  0
 10 33  1  0  0  0  0
 10 34  1  0  0  0  0
 11 35  1  0  0  0  0
 11 36  1  0  0  0  0
 12 37  1  0  0  0  0
 12 38  1  0  0  0  0
 13 39  1  0  0  0  0
 13 40  1  0  0  0  0
 13 41  1  0  0  0  0
 14 42  1  0  0  0  0
 14 43  1  0  0  0  0
 14 44  1  0  0  0  0
 15 45  1  0  0  0  0
 15 46  1  0  0  0  0
 15 47  1  0  0  0  0
 19 48  1  0  0  0  0
M  END
> <id>
EN300-361287

> <smiles>
CC(C)(C)OC(=O)N1CCN(CC1)C=2C=C3CNCCC3=NN2

> <MDLNUMBER>
MFCD30538936

> <IUPAC Name>
tert-butyl 4-{5H,6H,7H,8H-pyrido[4,3-c]pyridazin-3-yl}piperazine-1-carboxylate

> <CAS>
2137691-63-3

> <URL>
https://www.enaminestore.com/catalog/EN300-361287

> <ROCS_ShapeQuery>
_x0404_0B

> <ROCS_TanimotoCombo>
0.455 

> <ROCS_ShapeTanimoto>
0.377 

> <ROCS_ColorTanimoto>
0.078 

> <ROCS_RefTversky>
0.328 

> <ROCS_RefColorTversky>
0.085 

> <ROCS_RefTverskyCombo>
0.413 

> <ROCS_FitTversky>
1.645 

> <ROCS_FitColorTversky>
0.486 

> <ROCS_FitTverskyCombo>
2.131 

> <ROCS_ColorScore>
-6.144

> <ROCS_Overlap>
2192.593

> <ROCS_Rank>
71                  

$$$$
untitled-dbase-89011_394
  -OEChem-08222312023D

 60 63  0     0  0  0  0  0  0999 V2000
   -8.9763    3.9542   -9.1727 B   0  0  0  0  0  0  0  0  0  0  0  0
   -9.0110    6.2282  -10.3410 C   0  0  0  0  0  0  0  0  0  0  0  0
   -8.9107    7.0309  -11.4806 C   0  0  0  0  0  0  0  0  0  0  0  0
   -8.6180    4.2771  -11.6860 C   0  0  0  0  0  0  0  0  0  0  0  0
   -8.8641    4.8511  -10.4435 C   0  0  0  0  0  0  0  0  0  0  0  0
   -8.6624    6.4839  -12.7544 C   0  0  0  0  0  0  0  0  0  0  0  0
   -8.5202    5.0780  -12.8368 C   0  0  0  0  0  0  0  0  0  0  0  0
   -8.5887    4.8572  -16.6085 C   0  0  0  0  0  0  0  0  0  0  0  0
   -8.2284    4.3975  -14.1565 C   0  0  0  0  0  0  0  0  0  0  0  0
   -8.5152    8.8328  -14.0091 C   0  0  0  0  0  0  0  0  0  0  0  0
   -9.7577    8.1248  -14.4594 C   0  0  0  0  0  0  0  0  0  0  0  0
   -7.7380    6.6465  -15.1177 C   0  0  0  0  0  0  0  0  0  0  0  0
   -8.5452    7.3187  -14.0296 C   0  0  0  0  0  0  0  0  0  0  0  0
   -9.0643    3.3551   -6.9713 C   0  0  0  0  0  0  0  0  0  0  0  0
   -9.1984    2.0857   -7.8794 C   0  0  0  0  0  0  0  0  0  0  0  0
  -10.1430    3.4831   -5.8863 C   0  0  0  0  0  0  0  0  0  0  0  0
   -7.6865    3.5249   -6.2920 C   0  0  0  0  0  0  0  0  0  0  0  0
  -10.6278    1.5063   -7.9785 C   0  0  0  0  0  0  0  0  0  0  0  0
   -8.2485    0.9355   -7.5166 C   0  0  0  0  0  0  0  0  0  0  0  0
   -9.0241    4.4037  -19.4004 C   0  0  0  0  0  0  0  0  0  0  0  0
   -6.9978    5.8433  -19.7616 C   0  0  0  0  0  0  0  0  0  0  0  0
   -6.7866    3.6798  -18.5036 C   0  0  0  0  0  0  0  0  0  0  0  0
   -7.6934    4.8703  -18.8121 C   0  0  0  0  0  0  0  0  0  0  0  0
   -8.2435    5.2904  -15.3226 N   0  0  0  0  0  0  0  0  0  0  0  0
   -9.3755    3.9424  -16.8455 O   0  0  0  0  0  0  0  0  0  0  0  0
   -9.2228    4.4734   -7.9043 O   0  0  0  0  0  0  0  0  0  0  0  0
   -8.8383    2.5691   -9.2147 O   0  0  0  0  0  0  0  0  0  0  0  0
   -7.9558    5.5719  -17.5914 O   0  0  0  0  0  0  0  0  0  0  0  0
   -9.2052    6.7115   -9.3852 H   0  0  0  0  0  0  0  0  0  0  0  0
   -9.0257    8.1037  -11.3525 H   0  0  0  0  0  0  0  0  0  0  0  0
   -8.4984    3.1989  -11.7885 H   0  0  0  0  0  0  0  0  0  0  0  0
   -7.2560    3.8970  -14.0901 H   0  0  0  0  0  0  0  0  0  0  0  0
   -8.9939    3.6336  -14.3412 H   0  0  0  0  0  0  0  0  0  0  0  0
   -7.9294    9.3518  -14.7605 H   0  0  0  0  0  0  0  0  0  0  0  0
   -8.5498    9.3486  -13.0552 H   0  0  0  0  0  0  0  0  0  0  0  0
  -10.6301    8.1850  -13.8246 H   0  0  0  0  0  0  0  0  0  0  0  0
  -10.0003    8.1663  -15.5150 H   0  0  0  0  0  0  0  0  0  0  0  0
   -7.8447    7.1904  -16.0646 H   0  0  0  0  0  0  0  0  0  0  0  0
   -6.6701    6.6264  -14.8742 H   0  0  0  0  0  0  0  0  0  0  0  0
   -9.9629    4.3865   -5.3171 H   0  0  0  0  0  0  0  0  0  0  0  0
  -10.0911    2.6189   -5.2361 H   0  0  0  0  0  0  0  0  0  0  0  0
  -11.1148    3.5319   -6.3614 H   0  0  0  0  0  0  0  0  0  0  0  0
   -7.6907    4.4270   -5.6874 H   0  0  0  0  0  0  0  0  0  0  0  0
   -6.9157    3.6018   -7.0533 H   0  0  0  0  0  0  0  0  0  0  0  0
   -7.4874    2.6648   -5.6594 H   0  0  0  0  0  0  0  0  0  0  0  0
  -10.6199    0.6340   -8.6256 H   0  0  0  0  0  0  0  0  0  0  0  0
  -11.2944    2.2580   -8.3911 H   0  0  0  0  0  0  0  0  0  0  0  0
  -10.9711    1.2206   -6.9885 H   0  0  0  0  0  0  0  0  0  0  0  0
   -8.4186    0.1116   -8.1981 H   0  0  0  0  0  0  0  0  0  0  0  0
   -8.4486    0.6227   -6.4995 H   0  0  0  0  0  0  0  0  0  0  0  0
   -7.2268    1.2835   -7.6033 H   0  0  0  0  0  0  0  0  0  0  0  0
   -9.5266    3.7051  -18.7218 H   0  0  0  0  0  0  0  0  0  0  0  0
   -9.6971    5.2455  -19.5936 H   0  0  0  0  0  0  0  0  0  0  0  0
   -8.8677    3.8627  -20.3407 H   0  0  0  0  0  0  0  0  0  0  0  0
   -6.0425    6.1808  -19.3434 H   0  0  0  0  0  0  0  0  0  0  0  0
   -7.6045    6.7438  -19.9111 H   0  0  0  0  0  0  0  0  0  0  0  0
   -6.8069    5.3877  -20.7385 H   0  0  0  0  0  0  0  0  0  0  0  0
   -5.8320    4.0142  -18.0816 H   0  0  0  0  0  0  0  0  0  0  0  0
   -7.2548    2.9892  -17.7947 H   0  0  0  0  0  0  0  0  0  0  0  0
   -6.5437    3.1277  -19.4187 H   0  0  0  0  0  0  0  0  0  0  0  0
  1  5  1  0  0  0  0
  1 26  1  0  0  0  0
  1 27  1  0  0  0  0
  2  3  1  0  0  0  0
  2  5  2  0  0  0  0
  3  6  2  0  0  0  0
  4  5  1  0  0  0  0
  4  7  2  0  0  0  0
  6  7  1  0  0  0  0
  6 13  1  0  0  0  0
  7  9  1  0  0  0  0
  8 24  1  0  0  0  0
  8 25  2  0  0  0  0
  8 28  1  0  0  0  0
  9 24  1  0  0  0  0
 10 11  1  0  0  0  0
 10 13  1  0  0  0  0
 11 13  1  0  0  0  0
 12 13  1  0  0  0  0
 12 24  1  0  0  0  0
 14 15  1  0  0  0  0
 14 16  1  0  0  0  0
 14 17  1  0  0  0  0
 14 26  1  0  0  0  0
 15 18  1  0  0  0  0
 15 19  1  0  0  0  0
 15 27  1  0  0  0  0
 20 23  1  0  0  0  0
 21 23  1  0  0  0  0
 22 23  1  0  0  0  0
 23 28  1  0  0  0  0
  2 29  1  0  0  0  0
  3 30  1  0  0  0  0
  4 31  1  0  0  0  0
  9 32  1  0  0  0  0
  9 33  1  0  0  0  0
 10 34  1  0  0  0  0
 10 35  1  0  0  0  0
 11 36  1  0  0  0  0
 11 37  1  0  0  0  0
 12 38  1  0  0  0  0
 12 39  1  0  0  0  0
 16 40  1  0  0  0  0
 16 41  1  0  0  0  0
 16 42  1  0  0  0  0
 17 43  1  0  0  0  0
 17 44  1  0  0  0  0
 17 45  1  0  0  0  0
 18 46  1  0  0  0  0
 18 47  1  0  0  0  0
 18 48  1  0  0  0  0
 19 49  1  0  0  0  0
 19 50  1  0  0  0  0
 19 51  1  0  0  0  0
 20 52  1  0  0  0  0
 20 53  1  0  0  0  0
 20 54  1  0  0  0  0
 21 55  1  0  0  0  0
 21 56  1  0  0  0  0
 21 57  1  0  0  0  0
 22 58  1  0  0  0  0
 22 59  1  0  0  0  0
 22 60  1  0  0  0  0
M  END
> <id>
EN300-12583278

> <smiles>
CC(C)(C)OC(=O)N1CC=2C=C(C=CC2C3(CC3)C1)B4OC(C)(C)C(C)(C)O4

> <MDLNUMBER>
MFCD16652367

> <IUPAC Name>
tert-butyl 7'-(tetramethyl-1,3,2-dioxaborolan-2-yl)-2',3'-dihydro-1'H-spiro[cyclopropane-1,4'-isoquinoline]-2'-carboxylate

> <CAS>
1338097-05-4

> <Purity>
95

> <URL>
https://www.enaminestore.com/catalog/EN300-12583278

> <ROCS_ShapeQuery>
_x0404_0B

> <ROCS_TanimotoCombo>
0.455 

> <ROCS_ShapeTanimoto>
0.410 

> <ROCS_ColorTanimoto>
0.044 

> <ROCS_RefTversky>
0.358 

> <ROCS_RefColorTversky>
0.049 

> <ROCS_RefTverskyCombo>
0.407 

> <ROCS_FitTversky>
1.553 

> <ROCS_FitColorTversky>
0.336 

> <ROCS_FitTverskyCombo>
1.889 

> <ROCS_ColorScore>
-3.506

> <ROCS_Overlap>
2395.158

> <ROCS_Rank>
72                  

$$$$
untitled-dbase-171670_4
  -OEChem-08222312023D

 39 42  0     1  0  0  0  0  0999 V2000
   -8.3969    3.6124  -11.4310 C   0  0  0  0  0  0  0  0  0  0  0  0
   -9.1706    6.3693  -11.1677 C   0  0  0  0  0  0  0  0  0  0  0  0
   -8.5559    4.4516  -12.5194 C   0  0  0  0  0  0  0  0  0  0  0  0
   -8.6519    4.1790  -10.1902 C   0  0  0  0  0  0  0  0  0  0  0  0
   -8.9334    5.7992  -12.4058 C   0  0  0  0  0  0  0  0  0  0  0  0
   -9.0284    5.5376  -10.0641 C   0  0  0  0  0  0  0  0  0  0  0  0
   -8.3662    4.1471  -13.9426 C   0  0  0  0  0  0  0  0  0  0  0  0
   -8.2268    4.4403  -18.7517 C   0  0  0  0  0  0  0  0  0  0  0  0
   -9.6303    4.5847  -16.6769 C   0  0  0  0  0  0  0  0  0  0  0  0
   -9.1836    5.9132   -8.6215 C   0  0  0  0  0  0  0  0  0  0  0  0
   -9.0075    6.4306  -13.7550 C   0  0  0  0  0  0  0  0  0  0  0  0
   -7.1839    5.3176  -18.1013 C   0  0  0  0  0  0  0  0  0  0  0  0
   -9.3509    4.5310   -7.9743 C   0  0  0  0  0  0  0  0  0  0  0  0
   -7.1918    5.1638  -16.5913 C   0  0  0  0  0  0  0  0  0  0  0  0
   -8.5200    3.5512   -8.8285 C   0  0  1  0  0  0  0  0  0  0  0  0
   -8.5782    5.4877  -16.0583 C   0  0  2  0  0  0  0  0  0  0  0  0
   -9.3514    4.1692  -17.9785 N   0  0  0  0  0  0  0  0  0  0  0  0
   -8.6392    5.3243  -14.6301 N   0  0  0  0  0  0  0  0  0  0  0  0
   -9.0278    2.1928   -8.7153 N   0  0  0  0  0  0  0  0  0  0  0  0
   -8.0341    3.0557  -14.3675 O   0  0  0  0  0  0  0  0  0  0  0  0
   -8.0994    4.0427  -19.9096 O   0  0  0  0  0  0  0  0  0  0  0  0
  -10.6845    4.3017  -16.1079 O   0  0  0  0  0  0  0  0  0  0  0  0
   -8.0959    2.5771  -11.5370 H   0  0  0  0  0  0  0  0  0  0  0  0
   -9.4528    7.4101  -11.0638 H   0  0  0  0  0  0  0  0  0  0  0  0
   -8.3049    6.4336   -8.2286 H   0  0  0  0  0  0  0  0  0  0  0  0
  -10.0781    6.5303   -8.4856 H   0  0  0  0  0  0  0  0  0  0  0  0
  -10.0213    6.7599  -13.9984 H   0  0  0  0  0  0  0  0  0  0  0  0
   -8.2798    7.2385  -13.8701 H   0  0  0  0  0  0  0  0  0  0  0  0
   -6.2003    5.0380  -18.4942 H   0  0  0  0  0  0  0  0  0  0  0  0
   -7.3847    6.3555  -18.3895 H   0  0  0  0  0  0  0  0  0  0  0  0
   -8.9309    4.5588   -6.9611 H   0  0  0  0  0  0  0  0  0  0  0  0
  -10.4000    4.2431   -7.8756 H   0  0  0  0  0  0  0  0  0  0  0  0
   -6.9115    4.1350  -16.3290 H   0  0  0  0  0  0  0  0  0  0  0  0
   -6.4448    5.8335  -16.1498 H   0  0  0  0  0  0  0  0  0  0  0  0
   -7.4610    3.5805   -8.4836 H   0  0  0  0  0  0  0  0  0  0  0  0
   -8.8473    6.5264  -16.2841 H   0  0  0  0  0  0  0  0  0  0  0  0
  -10.0627    3.5928  -18.4201 H   0  0  0  0  0  0  0  0  0  0  0  0
   -8.4673    1.6019   -9.2833 H   0  0  0  0  0  0  0  0  0  0  0  0
   -8.9720    1.9180   -7.7628 H   0  0  0  0  0  0  0  0  0  0  0  0
  1  3  1  0  0  0  0
  1  4  2  0  0  0  0
  2  5  1  0  0  0  0
  2  6  2  0  0  0  0
  3  5  2  0  0  0  0
  3  7  1  0  0  0  0
  4  6  1  0  0  0  0
  4 15  1  0  0  0  0
  5 11  1  0  0  0  0
  6 10  1  0  0  0  0
  7 18  1  0  0  0  0
  7 20  2  0  0  0  0
  8 12  1  0  0  0  0
  8 17  1  0  0  0  0
  8 21  2  0  0  0  0
  9 16  1  0  0  0  0
  9 17  1  0  0  0  0
  9 22  2  0  0  0  0
 10 13  1  0  0  0  0
 11 18  1  0  0  0  0
 12 14  1  0  0  0  0
 13 15  1  0  0  0  0
 14 16  1  0  0  0  0
 15 19  1  0  0  0  0
 16 18  1  0  0  0  0
  1 23  1  0  0  0  0
  2 24  1  0  0  0  0
 10 25  1  0  0  0  0
 10 26  1  0  0  0  0
 11 27  1  0  0  0  0
 11 28  1  0  0  0  0
 12 29  1  0  0  0  0
 12 30  1  0  0  0  0
 13 31  1  0  0  0  0
 13 32  1  0  0  0  0
 14 33  1  0  0  0  0
 14 34  1  0  0  0  0
 15 35  1  0  0  0  0
 16 36  1  0  0  0  0
 17 37  1  0  0  0  0
 19 38  1  0  0  0  0
 19 39  1  0  0  0  0
M  END
> <id>
EN300-39872089

> <smiles>
NC1CCC=2C=C3CN(C4CCC(=O)NC4=O)C(=O)C3=CC12

> <IUPAC Name>
3-{7-amino-1-oxo-1H,2H,3H,5H,6H,7H-cyclopenta[f]isoindol-2-yl}piperidine-2,6-dione

> <URL>
https://www.enaminestore.com/catalog/EN300-39872089

> <ROCS_ShapeQuery>
_x0404_0B

> <ROCS_TanimotoCombo>
0.455 

> <ROCS_ShapeTanimoto>
0.371 

> <ROCS_ColorTanimoto>
0.083 

> <ROCS_RefTversky>
0.324 

> <ROCS_RefColorTversky>
0.091 

> <ROCS_RefTverskyCombo>
0.415 

> <ROCS_FitTversky>
1.639 

> <ROCS_FitColorTversky>
0.495 

> <ROCS_FitTverskyCombo>
2.134 

> <ROCS_ColorScore>
-6.589

> <ROCS_Overlap>
2165.478

> <ROCS_Rank>
73                  

$$$$
untitled-dbase-116923_17
  -OEChem-08222312023D

 41 44  0     1  0  0  0  0  0999 V2000
   -9.1823    2.5770   -8.7577 C   0  0  0  0  0  0  0  0  0  0  0  0
   -9.1821    3.6967   -7.9397 C   0  0  0  0  0  0  0  0  0  0  0  0
   -9.0424    2.7353  -10.1349 C   0  0  0  0  0  0  0  0  0  0  0  0
   -9.0389    4.9606   -8.5089 C   0  0  0  0  0  0  0  0  0  0  0  0
   -7.7065    4.8578  -18.4348 C   0  0  0  0  0  0  0  0  0  0  0  0
   -8.9424    4.4842  -18.9509 C   0  0  0  0  0  0  0  0  0  0  0  0
   -8.9016    3.9984  -10.7068 C   0  0  0  0  0  0  0  0  0  0  0  0
   -8.8964    5.1219   -9.8858 C   0  0  0  0  0  0  0  0  0  0  0  0
   -7.4896    4.8109  -17.0622 C   0  0  0  0  0  0  0  0  0  0  0  0
   -8.5327    4.3865  -16.2549 C   0  0  0  0  0  0  0  0  0  0  0  0
   -8.6678    5.3747  -12.5857 C   0  0  0  0  0  0  0  0  0  0  0  0
   -8.5818    6.5037  -11.7623 C   0  0  0  0  0  0  0  0  0  0  0  0
   -9.9204    4.0742  -18.0591 C   0  0  0  0  0  0  0  0  0  0  0  0
   -8.3990    4.3040  -14.7948 C   0  0  0  0  0  0  0  0  0  0  0  0
   -8.1185    7.7902  -14.6746 C   0  0  0  0  0  0  0  0  0  0  0  0
   -9.1874    6.7076  -14.6322 C   0  0  0  0  0  0  0  0  0  0  0  0
   -7.3606    7.9128  -13.3624 C   0  0  0  0  0  0  0  0  0  0  0  0
   -8.4123    8.9131  -11.3265 C   0  0  0  0  0  0  0  0  0  0  0  0
   -8.7863    4.1393  -12.0330 N   0  0  0  0  0  0  0  0  0  0  0  0
   -8.7411    6.3413  -10.4198 N   0  0  0  0  0  0  0  0  0  0  0  0
   -9.7468    4.0156  -16.7197 N   0  0  0  0  0  0  0  0  0  0  0  0
   -8.7069    5.4495  -14.0348 N   0  0  0  0  0  0  0  0  0  0  0  0
   -8.2727    7.7820  -12.2315 N   0  0  2  0  0  0  0  0  0  0  0  0
   -7.9946    3.2213  -14.3724 O   0  0  0  0  0  0  0  0  0  0  0  0
   -5.9583    5.2747  -16.4288 Cl  0  0  0  0  0  0  0  0  0  0  0  0
  -11.4748    3.5967  -18.6053 Cl  0  0  0  0  0  0  0  0  0  0  0  0
   -9.2935    1.5853   -8.3303 H   0  0  0  0  0  0  0  0  0  0  0  0
   -9.2921    3.5908   -6.8649 H   0  0  0  0  0  0  0  0  0  0  0  0
   -9.0480    1.8505  -10.7688 H   0  0  0  0  0  0  0  0  0  0  0  0
   -9.0365    5.8328   -7.8583 H   0  0  0  0  0  0  0  0  0  0  0  0
   -6.9234    5.1833  -19.1145 H   0  0  0  0  0  0  0  0  0  0  0  0
   -9.1207    4.5177  -20.0205 H   0  0  0  0  0  0  0  0  0  0  0  0
   -7.4053    7.5798  -15.4805 H   0  0  0  0  0  0  0  0  0  0  0  0
   -8.5963    8.7466  -14.9189 H   0  0  0  0  0  0  0  0  0  0  0  0
  -10.0760    7.0429  -14.0755 H   0  0  0  0  0  0  0  0  0  0  0  0
   -9.5424    6.5205  -15.6555 H   0  0  0  0  0  0  0  0  0  0  0  0
   -6.5624    7.1623  -13.3008 H   0  0  0  0  0  0  0  0  0  0  0  0
   -6.8497    8.8828  -13.3427 H   0  0  0  0  0  0  0  0  0  0  0  0
   -8.1311    9.8389  -11.8497 H   0  0  0  0  0  0  0  0  0  0  0  0
   -9.4567    8.9856  -10.9888 H   0  0  0  0  0  0  0  0  0  0  0  0
   -7.7548    8.7696  -10.4563 H   0  0  0  0  0  0  0  0  0  0  0  0
  1  2  2  0  0  0  0
  1  3  1  0  0  0  0
  2  4  1  0  0  0  0
  3  7  2  0  0  0  0
  4  8  2  0  0  0  0
  5  6  1  0  0  0  0
  5  9  2  0  0  0  0
  6 13  2  0  0  0  0
  7  8  1  0  0  0  0
  7 19  1  0  0  0  0
  8 20  1  0  0  0  0
  9 10  1  0  0  0  0
  9 25  1  0  0  0  0
 10 14  1  0  0  0  0
 10 21  2  0  0  0  0
 11 12  1  0  0  0  0
 11 19  2  0  0  0  0
 11 22  1  0  0  0  0
 12 20  2  0  0  0  0
 12 23  1  0  0  0  0
 13 21  1  0  0  0  0
 13 26  1  0  0  0  0
 14 22  1  0  0  0  0
 14 24  2  0  0  0  0
 15 16  1  0  0  0  0
 15 17  1  0  0  0  0
 16 22  1  0  0  0  0
 17 23  1  0  0  0  0
 18 23  1  0  0  0  0
  1 27  1  0  0  0  0
  2 28  1  0  0  0  0
  3 29  1  0  0  0  0
  4 30  1  0  0  0  0
  5 31  1  0  0  0  0
  6 32  1  0  0  0  0
 15 33  1  0  0  0  0
 15 34  1  0  0  0  0
 16 35  1  0  0  0  0
 16 36  1  0  0  0  0
 17 37  1  0  0  0  0
 17 38  1  0  0  0  0
 18 39  1  0  0  0  0
 18 40  1  0  0  0  0
 18 41  1  0  0  0  0
M  END
> <id>
EN300-26616386

> <smiles>
CN1CCCN(C(=O)C=2N=C(Cl)C=CC2Cl)C=3N=C4C=CC=CC4=NC13

> <IUPAC Name>
3,6-dichloro-2-{5-methyl-1H,2H,3H,4H,5H-[1,4]diazepino[2,3-b]quinoxaline-1-carbonyl}pyridine

> <CAS>
1110946-88-7

> <URL>
https://www.enaminestore.com/catalog/EN300-26616386

> <ROCS_ShapeQuery>
_x0404_0B

> <ROCS_TanimotoCombo>
0.454 

> <ROCS_ShapeTanimoto>
0.393 

> <ROCS_ColorTanimoto>
0.062 

> <ROCS_RefTversky>
0.345 

> <ROCS_RefColorTversky>
0.067 

> <ROCS_RefTverskyCombo>
0.412 

> <ROCS_FitTversky>
1.542 

> <ROCS_FitColorTversky>
0.425 

> <ROCS_FitTverskyCombo>
1.967 

> <ROCS_ColorScore>
-4.846

> <ROCS_Overlap>
2308.010

> <ROCS_Rank>
74                  

$$$$
untitled-dbase-103713_1061
  -OEChem-08222312023D

 53 55  0     1  0  0  0  0  0999 V2000
   -9.0106    3.9732   -9.2173 B   0  0  0  0  0  0  0  0  0  0  0  0
   -7.1891    5.0203  -19.0258 C   0  0  0  0  0  0  0  0  0  0  0  0
   -8.9814    6.1875  -10.6253 C   0  0  0  0  0  0  0  0  0  0  0  0
   -8.8156    4.8544  -10.6445 C   0  0  0  0  0  0  0  0  0  0  0  0
   -9.5831    6.4041  -14.1984 C   0  0  0  0  0  0  0  0  0  0  0  0
   -8.8583    7.0546  -11.8506 C   0  0  0  0  0  0  0  0  0  0  0  0
   -8.4381    4.1016  -11.8942 C   0  0  0  0  0  0  0  0  0  0  0  0
   -7.1061    4.9585  -16.5479 C   0  0  0  0  0  0  0  0  0  0  0  0
   -7.9158    5.0510  -12.9731 C   0  0  0  0  0  0  0  0  0  0  0  0
   -7.6165    6.1913  -15.8009 C   0  0  0  0  0  0  0  0  0  0  0  0
   -9.8920    5.3333  -16.3892 C   0  0  0  0  0  0  0  0  0  0  0  0
   -7.9246    4.6310  -17.8086 C   0  0  1  0  0  0  0  0  0  0  0  0
   -9.3038    5.2924  -17.7863 C   0  0  0  0  0  0  0  0  0  0  0  0
   -9.2287    3.5149   -6.9855 C   0  0  0  0  0  0  0  0  0  0  0  0
   -9.2888    2.1871   -7.8132 C   0  0  0  0  0  0  0  0  0  0  0  0
   -7.8999    3.7518   -6.2330 C   0  0  0  0  0  0  0  0  0  0  0  0
  -10.3765    3.6973   -5.9823 C   0  0  0  0  0  0  0  0  0  0  0  0
  -10.7004    1.5753   -7.9584 C   0  0  0  0  0  0  0  0  0  0  0  0
   -8.3451    1.0812   -7.3199 C   0  0  0  0  0  0  0  0  0  0  0  0
   -6.6103    5.3266  -19.9836 N   0  0  0  0  0  0  0  0  0  0  0  0
   -8.7603    6.2426  -13.0741 N   0  0  0  0  0  0  0  0  0  0  0  0
   -9.0432    6.0746  -15.4528 N   0  0  0  0  0  0  0  0  0  0  0  0
  -10.7461    6.8157  -14.0915 O   0  0  0  0  0  0  0  0  0  0  0  0
   -9.3399    4.5652   -8.0002 O   0  0  0  0  0  0  0  0  0  0  0  0
   -8.8563    2.5904   -9.1532 O   0  0  0  0  0  0  0  0  0  0  0  0
  -10.1450    4.6227  -18.6140 F   0  0  0  0  0  0  0  0  0  0  0  0
   -9.2364    6.5659  -18.2588 F   0  0  0  0  0  0  0  0  0  0  0  0
   -9.2297    6.7070   -9.7010 H   0  0  0  0  0  0  0  0  0  0  0  0
   -9.7382    7.7047  -11.8956 H   0  0  0  0  0  0  0  0  0  0  0  0
   -7.9558    7.6726  -11.7725 H   0  0  0  0  0  0  0  0  0  0  0  0
   -7.6611    3.3576  -11.6825 H   0  0  0  0  0  0  0  0  0  0  0  0
   -9.3167    3.5644  -12.2726 H   0  0  0  0  0  0  0  0  0  0  0  0
   -6.0401    5.1087  -16.8121 H   0  0  0  0  0  0  0  0  0  0  0  0
   -7.1139    4.0898  -15.8617 H   0  0  0  0  0  0  0  0  0  0  0  0
   -6.9015    5.3927  -12.7267 H   0  0  0  0  0  0  0  0  0  0  0  0
   -7.8563    4.5336  -13.9379 H   0  0  0  0  0  0  0  0  0  0  0  0
   -7.0673    6.3198  -14.8586 H   0  0  0  0  0  0  0  0  0  0  0  0
   -7.4441    7.0941  -16.3992 H   0  0  0  0  0  0  0  0  0  0  0  0
  -10.8874    5.7934  -16.4628 H   0  0  0  0  0  0  0  0  0  0  0  0
  -10.0263    4.3133  -15.9922 H   0  0  0  0  0  0  0  0  0  0  0  0
   -8.0738    3.5338  -17.8573 H   0  0  0  0  0  0  0  0  0  0  0  0
   -7.9628    4.6902   -5.6964 H   0  0  0  0  0  0  0  0  0  0  0  0
   -7.0913    3.7897   -6.9521 H   0  0  0  0  0  0  0  0  0  0  0  0
   -7.7401    2.9372   -5.5378 H   0  0  0  0  0  0  0  0  0  0  0  0
  -10.2514    4.6402   -5.4579 H   0  0  0  0  0  0  0  0  0  0  0  0
  -10.3643    2.8800   -5.2671 H   0  0  0  0  0  0  0  0  0  0  0  0
  -11.3236    3.7005   -6.5138 H   0  0  0  0  0  0  0  0  0  0  0  0
  -10.6309    0.6669   -8.5436 H   0  0  0  0  0  0  0  0  0  0  0  0
  -11.3429    2.2896   -8.4579 H   0  0  0  0  0  0  0  0  0  0  0  0
  -11.0895    1.3525   -6.9728 H   0  0  0  0  0  0  0  0  0  0  0  0
   -8.4555    0.2041   -7.9509 H   0  0  0  0  0  0  0  0  0  0  0  0
   -8.5947    0.8243   -6.2946 H   0  0  0  0  0  0  0  0  0  0  0  0
   -7.3191    1.4348   -7.3662 H   0  0  0  0  0  0  0  0  0  0  0  0
  1  4  1  0  0  0  0
  1 24  1  0  0  0  0
  1 25  1  0  0  0  0
  2 12  1  0  0  0  0
  2 20  3  0  0  0  0
  3  4  2  0  0  0  0
  3  6  1  0  0  0  0
  4  7  1  0  0  0  0
  5 21  1  0  0  0  0
  5 22  1  0  0  0  0
  5 23  2  0  0  0  0
  6 21  1  0  0  0  0
  7  9  1  0  0  0  0
  8 10  1  0  0  0  0
  8 12  1  0  0  0  0
  9 21  1  0  0  0  0
 10 22  1  0  0  0  0
 11 13  1  0  0  0  0
 11 22  1  0  0  0  0
 12 13  1  0  0  0  0
 13 26  1  0  0  0  0
 13 27  1  0  0  0  0
 14 15  1  0  0  0  0
 14 16  1  0  0  0  0
 14 17  1  0  0  0  0
 14 24  1  0  0  0  0
 15 18  1  0  0  0  0
 15 19  1  0  0  0  0
 15 25  1  0  0  0  0
  3 28  1  0  0  0  0
  6 29  1  0  0  0  0
  6 30  1  0  0  0  0
  7 31  1  0  0  0  0
  7 32  1  0  0  0  0
  8 33  1  0  0  0  0
  8 34  1  0  0  0  0
  9 35  1  0  0  0  0
  9 36  1  0  0  0  0
 10 37  1  0  0  0  0
 10 38  1  0  0  0  0
 11 39  1  0  0  0  0
 11 40  1  0  0  0  0
 12 41  1  0  0  0  0
 16 42  1  0  0  0  0
 16 43  1  0  0  0  0
 16 44  1  0  0  0  0
 17 45  1  0  0  0  0
 17 46  1  0  0  0  0
 17 47  1  0  0  0  0
 18 48  1  0  0  0  0
 18 49  1  0  0  0  0
 18 50  1  0  0  0  0
 19 51  1  0  0  0  0
 19 52  1  0  0  0  0
 19 53  1  0  0  0  0
M  END
> <id>
EN300-6735382

> <smiles>
CC1(C)OB(OC1(C)C)C2=CCN(CC2)C(=O)N3CCC(C#N)C(F)(F)C3

> <IUPAC Name>
3,3-difluoro-1-[4-(4,4,5,5-tetramethyl-1,3,2-dioxaborolan-2-yl)-1,2,3,6-tetrahydropyridine-1-carbonyl]piperidine-4-carbonitrile

> <URL>
https://www.enaminestore.com/catalog/EN300-6735382

> <ROCS_ShapeQuery>
_x0404_0B

> <ROCS_TanimotoCombo>
0.454 

> <ROCS_ShapeTanimoto>
0.396 

> <ROCS_ColorTanimoto>
0.058 

> <ROCS_RefTversky>
0.347 

> <ROCS_RefColorTversky>
0.062 

> <ROCS_RefTverskyCombo>
0.409 

> <ROCS_FitTversky>
1.561 

> <ROCS_FitColorTversky>
0.431 

> <ROCS_FitTverskyCombo>
1.992 

> <ROCS_ColorScore>
-4.497

> <ROCS_Overlap>
2319.772

> <ROCS_Rank>
75                  

$$$$
untitled-dbase-169854_158
  -OEChem-08222312023D

 52 54  0     0  0  0  0  0  0999 V2000
   -8.9845    3.9754   -8.9996 B   0  0  0  0  0  0  0  0  0  0  0  0
   -9.2646    5.6681  -10.8946 C   0  0  0  0  0  0  0  0  0  0  0  0
   -9.1706    6.0713  -12.2311 C   0  0  0  0  0  0  0  0  0  0  0  0
   -8.3600    3.4820  -11.4280 C   0  0  0  0  0  0  0  0  0  0  0  0
   -8.8663    4.3940  -10.4971 C   0  0  0  0  0  0  0  0  0  0  0  0
   -8.2592    3.8722  -12.7749 C   0  0  0  0  0  0  0  0  0  0  0  0
   -8.6618    5.1502  -13.1594 C   0  0  0  0  0  0  0  0  0  0  0  0
   -7.8183    3.2662  -13.9641 C   0  0  0  0  0  0  0  0  0  0  0  0
   -8.6773    6.2896  -15.3941 C   0  0  0  0  0  0  0  0  0  0  0  0
   -8.8500    4.0909   -6.7232 C   0  0  0  0  0  0  0  0  0  0  0  0
   -9.4456    2.7085   -7.1569 C   0  0  0  0  0  0  0  0  0  0  0  0
   -9.6659    4.8332   -5.6554 C   0  0  0  0  0  0  0  0  0  0  0  0
   -7.3799    4.0443   -6.2488 C   0  0  0  0  0  0  0  0  0  0  0  0
  -10.9701    2.5639   -6.9476 C   0  0  0  0  0  0  0  0  0  0  0  0
   -8.7653    1.4893   -6.5184 C   0  0  0  0  0  0  0  0  0  0  0  0
   -6.6693    5.7724  -17.3289 C   0  0  0  0  0  0  0  0  0  0  0  0
   -8.5570    5.6385  -18.9805 C   0  0  0  0  0  0  0  0  0  0  0  0
   -8.1235    7.7834  -17.7478 C   0  0  0  0  0  0  0  0  0  0  0  0
   -8.0774    6.2581  -17.6697 C   0  0  0  0  0  0  0  0  0  0  0  0
   -7.9212    4.0661  -15.0228 N   0  0  0  0  0  0  0  0  0  0  0  0
   -8.4383    5.2193  -14.5282 N   0  0  0  0  0  0  0  0  0  0  0  0
   -7.3432    1.9929  -13.9856 N   0  0  0  0  0  0  0  0  0  0  0  0
   -8.6115    7.4443  -15.0058 O   0  0  0  0  0  0  0  0  0  0  0  0
   -8.8785    4.8874   -7.9525 O   0  0  0  0  0  0  0  0  0  0  0  0
   -9.2048    2.6593   -8.6012 O   0  0  0  0  0  0  0  0  0  0  0  0
   -8.9696    5.8277  -16.6376 O   0  0  0  0  0  0  0  0  0  0  0  0
   -9.6603    6.3847  -10.1756 H   0  0  0  0  0  0  0  0  0  0  0  0
   -9.4860    7.0670  -12.5216 H   0  0  0  0  0  0  0  0  0  0  0  0
   -8.0445    2.4834  -11.1338 H   0  0  0  0  0  0  0  0  0  0  0  0
   -9.1741    5.7702   -5.4261 H   0  0  0  0  0  0  0  0  0  0  0  0
   -9.7231    4.2175   -4.7665 H   0  0  0  0  0  0  0  0  0  0  0  0
  -10.6602    5.0210   -6.0409 H   0  0  0  0  0  0  0  0  0  0  0  0
   -7.0582    5.0437   -5.9710 H   0  0  0  0  0  0  0  0  0  0  0  0
   -6.7525    3.6716   -7.0533 H   0  0  0  0  0  0  0  0  0  0  0  0
   -7.2985    3.3848   -5.3897 H   0  0  0  0  0  0  0  0  0  0  0  0
  -11.2879    1.5784   -7.2754 H   0  0  0  0  0  0  0  0  0  0  0  0
  -11.4877    3.3232   -7.5266 H   0  0  0  0  0  0  0  0  0  0  0  0
  -11.2035    2.6888   -5.8942 H   0  0  0  0  0  0  0  0  0  0  0  0
   -9.2467    0.5894   -6.8800 H   0  0  0  0  0  0  0  0  0  0  0  0
   -8.8643    1.5559   -5.4423 H   0  0  0  0  0  0  0  0  0  0  0  0
   -7.7185    1.4867   -6.7951 H   0  0  0  0  0  0  0  0  0  0  0  0
   -6.3213    6.2149  -16.3886 H   0  0  0  0  0  0  0  0  0  0  0  0
   -6.6302    4.6822  -17.2355 H   0  0  0  0  0  0  0  0  0  0  0  0
   -5.9525    6.0797  -18.0990 H   0  0  0  0  0  0  0  0  0  0  0  0
   -9.5670    5.9843  -19.2289 H   0  0  0  0  0  0  0  0  0  0  0  0
   -8.6160    4.5472  -18.8977 H   0  0  0  0  0  0  0  0  0  0  0  0
   -7.8908    5.8876  -19.8127 H   0  0  0  0  0  0  0  0  0  0  0  0
   -9.1334    8.1321  -17.9923 H   0  0  0  0  0  0  0  0  0  0  0  0
   -7.8177    8.2451  -16.8034 H   0  0  0  0  0  0  0  0  0  0  0  0
   -7.4676    8.1528  -18.5444 H   0  0  0  0  0  0  0  0  0  0  0  0
   -7.0660    1.5357  -14.8612 H   0  0  0  0  0  0  0  0  0  0  0  0
   -7.3316    1.4078  -13.1430 H   0  0  0  0  0  0  0  0  0  0  0  0
  1  5  1  0  0  0  0
  1 24  1  0  0  0  0
  1 25  1  0  0  0  0
  2  3  1  0  0  0  0
  2  5  2  0  0  0  0
  3  7  2  0  0  0  0
  4  5  1  0  0  0  0
  4  6  2  0  0  0  0
  6  7  1  0  0  0  0
  6  8  1  0  0  0  0
  7 21  1  0  0  0  0
  8 20  2  0  0  0  0
  8 22  1  0  0  0  0
  9 21  1  0  0  0  0
  9 23  2  0  0  0  0
  9 26  1  0  0  0  0
 10 11  1  0  0  0  0
 10 12  1  0  0  0  0
 10 13  1  0  0  0  0
 10 24  1  0  0  0  0
 11 14  1  0  0  0  0
 11 15  1  0  0  0  0
 11 25  1  0  0  0  0
 16 19  1  0  0  0  0
 17 19  1  0  0  0  0
 18 19  1  0  0  0  0
 19 26  1  0  0  0  0
 20 21  1  0  0  0  0
  2 27  1  0  0  0  0
  3 28  1  0  0  0  0
  4 29  1  0  0  0  0
 12 30  1  0  0  0  0
 12 31  1  0  0  0  0
 12 32  1  0  0  0  0
 13 33  1  0  0  0  0
 13 34  1  0  0  0  0
 13 35  1  0  0  0  0
 14 36  1  0  0  0  0
 14 37  1  0  0  0  0
 14 38  1  0  0  0  0
 15 39  1  0  0  0  0
 15 40  1  0  0  0  0
 15 41  1  0  0  0  0
 16 42  1  0  0  0  0
 16 43  1  0  0  0  0
 16 44  1  0  0  0  0
 17 45  1  0  0  0  0
 17 46  1  0  0  0  0
 17 47  1  0  0  0  0
 18 48  1  0  0  0  0
 18 49  1  0  0  0  0
 18 50  1  0  0  0  0
 22 51  1  0  0  0  0
 22 52  1  0  0  0  0
M  END
> <id>
EN300-39874878

> <smiles>
CC(C)(C)OC(=O)N1N=C(N)C=2C=C(C=CC12)B3OC(C)(C)C(C)(C)O3

> <IUPAC Name>
tert-butyl 3-amino-5-(4,4,5,5-tetramethyl-1,3,2-dioxaborolan-2-yl)-1H-indazole-1-carboxylate

> <CAS>
2379518-97-3

> <Purity>
95

> <URL>
https://www.enaminestore.com/catalog/EN300-39874878

> <ROCS_ShapeQuery>
_x0404_0B

> <ROCS_TanimotoCombo>
0.454 

> <ROCS_ShapeTanimoto>
0.342 

> <ROCS_ColorTanimoto>
0.112 

> <ROCS_RefTversky>
0.311 

> <ROCS_RefColorTversky>
0.119 

> <ROCS_RefTverskyCombo>
0.430 

> <ROCS_FitTversky>
1.406 

> <ROCS_FitColorTversky>
0.648 

> <ROCS_FitTverskyCombo>
2.054 

> <ROCS_ColorScore>
-8.618

> <ROCS_Overlap>
2078.566

> <ROCS_Rank>
76                  

$$$$
untitled-dbase-103711_253
  -OEChem-08222312023D

 56 58  0     1  0  0  0  0  0999 V2000
   -8.4117    5.5422  -15.1158 B   0  0  0  0  0  0  0  0  0  0  0  0
   -6.8854    0.7986  -10.0558 C   0  0  0  0  0  0  0  0  0  0  0  0
   -8.0798    6.5187  -12.7034 C   0  0  0  0  0  0  0  0  0  0  0  0
   -8.7431    5.6305  -13.4618 C   0  0  0  0  0  0  0  0  0  0  0  0
   -8.9577    5.1038   -9.3449 C   0  0  0  0  0  0  0  0  0  0  0  0
   -8.3040    6.6503  -11.2259 C   0  0  0  0  0  0  0  0  0  0  0  0
   -9.7933    4.7035  -12.9037 C   0  0  0  0  0  0  0  0  0  0  0  0
   -8.6539    2.4581   -7.0146 C   0  0  0  0  0  0  0  0  0  0  0  0
   -7.9435    1.3934   -7.8538 C   0  0  0  0  0  0  0  0  0  0  0  0
  -10.2037    5.0815  -11.4774 C   0  0  0  0  0  0  0  0  0  0  0  0
   -9.7044    3.2169   -7.8235 C   0  0  0  0  0  0  0  0  0  0  0  0
   -8.4778    2.7375   -9.9216 C   0  0  0  0  0  0  0  0  0  0  0  0
   -7.3766    1.9582   -9.1743 C   0  0  2  0  0  0  0  0  0  0  0  0
   -7.3287    5.8345  -17.1109 C   0  0  0  0  0  0  0  0  0  0  0  0
   -8.6509    5.0255  -17.3328 C   0  0  0  0  0  0  0  0  0  0  0  0
   -6.2245    2.8462   -8.8941 C   0  0  0  0  0  0  0  0  0  0  0  0
   -7.3853    7.3097  -17.5676 C   0  0  0  0  0  0  0  0  0  0  0  0
   -6.0763    5.1980  -17.7301 C   0  0  0  0  0  0  0  0  0  0  0  0
   -8.4534    3.5128  -17.5796 C   0  0  0  0  0  0  0  0  0  0  0  0
   -9.5559    5.5699  -18.4470 C   0  0  0  0  0  0  0  0  0  0  0  0
   -6.5146   -0.0766  -10.7211 N   0  0  0  0  0  0  0  0  0  0  0  0
   -9.0405    5.4932  -10.6915 N   0  0  0  0  0  0  0  0  0  0  0  0
   -9.1300    3.7380   -9.0705 N   0  0  0  0  0  0  0  0  0  0  0  0
   -8.7519    5.9282   -8.4457 O   0  0  0  0  0  0  0  0  0  0  0  0
   -7.1632    5.8423  -15.6556 O   0  0  0  0  0  0  0  0  0  0  0  0
   -9.3628    5.1629  -16.0602 O   0  0  0  0  0  0  0  0  0  0  0  0
   -7.3517    7.1954  -13.1392 H   0  0  0  0  0  0  0  0  0  0  0  0
   -7.3383    6.7123  -10.7093 H   0  0  0  0  0  0  0  0  0  0  0  0
   -8.8679    7.5714  -11.0476 H   0  0  0  0  0  0  0  0  0  0  0  0
  -10.6803    4.7277  -13.5567 H   0  0  0  0  0  0  0  0  0  0  0  0
   -9.4311    3.6638  -12.8938 H   0  0  0  0  0  0  0  0  0  0  0  0
   -9.1263    1.9929   -6.1388 H   0  0  0  0  0  0  0  0  0  0  0  0
   -7.9123    3.1680   -6.6245 H   0  0  0  0  0  0  0  0  0  0  0  0
   -7.1233    0.9759   -7.2545 H   0  0  0  0  0  0  0  0  0  0  0  0
   -8.6392    0.5674   -8.0498 H   0  0  0  0  0  0  0  0  0  0  0  0
  -10.9602    5.8747  -11.4990 H   0  0  0  0  0  0  0  0  0  0  0  0
  -10.6525    4.2195  -10.9664 H   0  0  0  0  0  0  0  0  0  0  0  0
  -10.5855    2.6047   -7.9986 H   0  0  0  0  0  0  0  0  0  0  0  0
  -10.0490    4.0857   -7.2542 H   0  0  0  0  0  0  0  0  0  0  0  0
   -8.0593    3.2791  -10.7814 H   0  0  0  0  0  0  0  0  0  0  0  0
   -9.2353    2.0476  -10.3188 H   0  0  0  0  0  0  0  0  0  0  0  0
   -6.5513    3.6732   -8.2716 H   0  0  0  0  0  0  0  0  0  0  0  0
   -5.8299    3.2286   -9.8302 H   0  0  0  0  0  0  0  0  0  0  0  0
   -5.4542    2.2828   -8.3769 H   0  0  0  0  0  0  0  0  0  0  0  0
   -6.4276    7.7751  -17.3711 H   0  0  0  0  0  0  0  0  0  0  0  0
   -8.1649    7.8186  -17.0147 H   0  0  0  0  0  0  0  0  0  0  0  0
   -7.6020    7.3409  -18.6280 H   0  0  0  0  0  0  0  0  0  0  0  0
   -5.2138    5.8258  -17.5262 H   0  0  0  0  0  0  0  0  0  0  0  0
   -6.2117    5.1050  -18.8037 H   0  0  0  0  0  0  0  0  0  0  0  0
   -5.9196    4.2142  -17.2973 H   0  0  0  0  0  0  0  0  0  0  0  0
   -9.4224    3.0506  -17.7198 H   0  0  0  0  0  0  0  0  0  0  0  0
   -7.9566    3.0790  -16.7209 H   0  0  0  0  0  0  0  0  0  0  0  0
   -7.8466    3.3782  -18.4663 H   0  0  0  0  0  0  0  0  0  0  0  0
  -10.4433    4.9488  -18.5274 H   0  0  0  0  0  0  0  0  0  0  0  0
   -9.0166    5.5558  -19.3896 H   0  0  0  0  0  0  0  0  0  0  0  0
   -9.8466    6.5893  -18.2103 H   0  0  0  0  0  0  0  0  0  0  0  0
  1  4  1  0  0  0  0
  1 25  1  0  0  0  0
  1 26  1  0  0  0  0
  2 13  1  0  0  0  0
  2 21  3  0  0  0  0
  3  4  2  0  0  0  0
  3  6  1  0  0  0  0
  4  7  1  0  0  0  0
  5 22  1  0  0  0  0
  5 23  1  0  0  0  0
  5 24  2  0  0  0  0
  6 22  1  0  0  0  0
  7 10  1  0  0  0  0
  8  9  1  0  0  0  0
  8 11  1  0  0  0  0
  9 13  1  0  0  0  0
 10 22  1  0  0  0  0
 11 23  1  0  0  0  0
 12 13  1  0  0  0  0
 12 23  1  0  0  0  0
 13 16  1  0  0  0  0
 14 15  1  0  0  0  0
 14 17  1  0  0  0  0
 14 18  1  0  0  0  0
 14 25  1  0  0  0  0
 15 19  1  0  0  0  0
 15 20  1  0  0  0  0
 15 26  1  0  0  0  0
  3 27  1  0  0  0  0
  6 28  1  0  0  0  0
  6 29  1  0  0  0  0
  7 30  1  0  0  0  0
  7 31  1  0  0  0  0
  8 32  1  0  0  0  0
  8 33  1  0  0  0  0
  9 34  1  0  0  0  0
  9 35  1  0  0  0  0
 10 36  1  0  0  0  0
 10 37  1  0  0  0  0
 11 38  1  0  0  0  0
 11 39  1  0  0  0  0
 12 40  1  0  0  0  0
 12 41  1  0  0  0  0
 16 42  1  0  0  0  0
 16 43  1  0  0  0  0
 16 44  1  0  0  0  0
 17 45  1  0  0  0  0
 17 46  1  0  0  0  0
 17 47  1  0  0  0  0
 18 48  1  0  0  0  0
 18 49  1  0  0  0  0
 18 50  1  0  0  0  0
 19 51  1  0  0  0  0
 19 52  1  0  0  0  0
 19 53  1  0  0  0  0
 20 54  1  0  0  0  0
 20 55  1  0  0  0  0
 20 56  1  0  0  0  0
M  END
> <id>
EN300-6735366

> <smiles>
CC1(C)OB(OC1(C)C)C2=CCN(CC2)C(=O)N3CCCC(C)(C3)C#N

> <MDLNUMBER>
MFCD32858788

> <IUPAC Name>
3-methyl-1-[4-(tetramethyl-1,3,2-dioxaborolan-2-yl)-1,2,3,6-tetrahydropyridine-1-carbonyl]piperidine-3-carbonitrile

> <URL>
https://www.enaminestore.com/catalog/EN300-6735366

> <ROCS_ShapeQuery>
_x0404_0B

> <ROCS_TanimotoCombo>
0.453 

> <ROCS_ShapeTanimoto>
0.371 

> <ROCS_ColorTanimoto>
0.083 

> <ROCS_RefTversky>
0.328 

> <ROCS_RefColorTversky>
0.088 

> <ROCS_RefTverskyCombo>
0.416 

> <ROCS_FitTversky>
1.535 

> <ROCS_FitColorTversky>
0.605 

> <ROCS_FitTverskyCombo>
2.140 

> <ROCS_ColorScore>
-6.318

> <ROCS_Overlap>
2192.969

> <ROCS_Rank>
77                  

$$$$
untitled-dbase-103093_0
  -OEChem-08222312023D

 36 38  0     1  0  0  0  0  0999 V2000
   -8.5389    4.4540   -9.0688 C   0  0  0  0  0  0  0  0  0  0  0  0
   -8.5457    4.1211   -7.9146 C   0  0  0  0  0  0  0  0  0  0  0  0
   -8.8456    6.1812  -10.7825 C   0  0  0  0  0  0  0  0  0  0  0  0
   -8.8485    6.6012  -12.1157 C   0  0  0  0  0  0  0  0  0  0  0  0
   -8.2169    3.9109  -11.4297 C   0  0  0  0  0  0  0  0  0  0  0  0
   -8.5326    4.8491  -10.4429 C   0  0  0  0  0  0  0  0  0  0  0  0
   -8.5341    5.6583  -13.0725 C   0  0  0  0  0  0  0  0  0  0  0  0
   -8.2265    4.3476  -12.7385 C   0  0  0  0  0  0  0  0  0  0  0  0
   -8.4519    5.7864  -14.5269 C   0  0  0  0  0  0  0  0  0  0  0  0
   -7.9433    3.6188  -13.9747 C   0  0  0  0  0  0  0  0  0  0  0  0
   -7.7671    4.9859  -19.1900 C   0  0  0  0  0  0  0  0  0  0  0  0
   -6.7488    5.0453  -16.8976 C   0  0  0  0  0  0  0  0  0  0  0  0
   -8.9321    4.1935  -18.6465 C   0  0  0  0  0  0  0  0  0  0  0  0
   -9.1812    4.5054  -17.1821 C   0  0  0  0  0  0  0  0  0  0  0  0
   -7.9181    4.2241  -16.3843 C   0  0  2  0  0  0  0  0  0  0  0  0
   -8.5534    3.7185   -6.5090 C   0  0  0  0  0  0  0  0  0  0  0  0
   -6.7859    5.3246  -18.2633 N   0  0  0  0  0  0  0  0  0  0  0  0
   -8.1005    4.5363  -14.9917 N   0  0  0  0  0  0  0  0  0  0  0  0
   -9.0310    2.3724   -6.3595 N   0  0  0  0  0  0  0  0  0  0  0  0
   -8.6638    6.8187  -15.1356 O   0  0  0  0  0  0  0  0  0  0  0  0
   -7.6375    2.4416  -14.0157 O   0  0  0  0  0  0  0  0  0  0  0  0
   -7.6804    5.2608  -20.3866 O   0  0  0  0  0  0  0  0  0  0  0  0
   -5.8012    5.3751  -16.1844 O   0  0  0  0  0  0  0  0  0  0  0  0
   -9.0898    6.9027  -10.0052 H   0  0  0  0  0  0  0  0  0  0  0  0
   -9.0886    7.6251  -12.3768 H   0  0  0  0  0  0  0  0  0  0  0  0
   -7.9737    2.8827  -11.1830 H   0  0  0  0  0  0  0  0  0  0  0  0
   -9.8241    4.4410  -19.2321 H   0  0  0  0  0  0  0  0  0  0  0  0
   -8.7148    3.1289  -18.7879 H   0  0  0  0  0  0  0  0  0  0  0  0
   -9.4724    5.5591  -17.0791 H   0  0  0  0  0  0  0  0  0  0  0  0
  -10.0126    3.8941  -16.8125 H   0  0  0  0  0  0  0  0  0  0  0  0
   -7.6443    3.1645  -16.4535 H   0  0  0  0  0  0  0  0  0  0  0  0
   -9.2079    4.3681   -5.9204 H   0  0  0  0  0  0  0  0  0  0  0  0
   -7.5482    3.7602   -6.0799 H   0  0  0  0  0  0  0  0  0  0  0  0
   -5.9924    5.8434  -18.6298 H   0  0  0  0  0  0  0  0  0  0  0  0
   -9.0035    2.1125   -5.3939 H   0  0  0  0  0  0  0  0  0  0  0  0
   -9.9722    2.3127   -6.6931 H   0  0  0  0  0  0  0  0  0  0  0  0
  1  2  3  0  0  0  0
  1  6  1  0  0  0  0
  2 16  1  0  0  0  0
  3  4  1  0  0  0  0
  3  6  2  0  0  0  0
  4  7  2  0  0  0  0
  5  6  1  0  0  0  0
  5  8  2  0  0  0  0
  7  8  1  0  0  0  0
  7  9  1  0  0  0  0
  8 10  1  0  0  0  0
  9 18  1  0  0  0  0
  9 20  2  0  0  0  0
 10 18  1  0  0  0  0
 10 21  2  0  0  0  0
 11 13  1  0  0  0  0
 11 17  1  0  0  0  0
 11 22  2  0  0  0  0
 12 15  1  0  0  0  0
 12 17  1  0  0  0  0
 12 23  2  0  0  0  0
 13 14  1  0  0  0  0
 14 15  1  0  0  0  0
 15 18  1  0  0  0  0
 16 19  1  0  0  0  0
  3 24  1  0  0  0  0
  4 25  1  0  0  0  0
  5 26  1  0  0  0  0
 13 27  1  0  0  0  0
 13 28  1  0  0  0  0
 14 29  1  0  0  0  0
 14 30  1  0  0  0  0
 15 31  1  0  0  0  0
 16 32  1  0  0  0  0
 16 33  1  0  0  0  0
 17 34  1  0  0  0  0
 19 35  1  0  0  0  0
 19 36  1  0  0  0  0
M  END
> <id>
EN300-27118138

> <smiles>
Cl.NCC#CC=1C=CC=2C(=O)N(C3CCC(=O)NC3=O)C(=O)C2C1

> <MDLNUMBER>
MFCD32852525

> <IUPAC Name>
5-(3-aminoprop-1-yn-1-yl)-2-(2,6-dioxopiperidin-3-yl)-2,3-dihydro-1H-isoindole-1,3-dione hydrochloride

> <CAS>
2490402-62-3

> <Purity>
95

> <URL>
https://www.enaminestore.com/catalog/EN300-27118138

> <Saltdate>
Cl

> <ROCS_ShapeQuery>
_x0404_0B

> <ROCS_TanimotoCombo>
0.453 

> <ROCS_ShapeTanimoto>
0.359 

> <ROCS_ColorTanimoto>
0.094 

> <ROCS_RefTversky>
0.318 

> <ROCS_RefColorTversky>
0.102 

> <ROCS_RefTverskyCombo>
0.420 

> <ROCS_FitTversky>
1.566 

> <ROCS_FitColorTversky>
0.553 

> <ROCS_FitTverskyCombo>
2.120 

> <ROCS_ColorScore>
-7.359

> <ROCS_Overlap>
2123.798

> <ROCS_Rank>
78                  

$$$$
untitled-dbase-103094_0
  -OEChem-08222312023D

 36 38  0     1  0  0  0  0  0999 V2000
   -8.5389    4.4540   -9.0688 C   0  0  0  0  0  0  0  0  0  0  0  0
   -8.5457    4.1211   -7.9146 C   0  0  0  0  0  0  0  0  0  0  0  0
   -8.8456    6.1812  -10.7825 C   0  0  0  0  0  0  0  0  0  0  0  0
   -8.8485    6.6012  -12.1157 C   0  0  0  0  0  0  0  0  0  0  0  0
   -8.2169    3.9109  -11.4297 C   0  0  0  0  0  0  0  0  0  0  0  0
   -8.5326    4.8491  -10.4429 C   0  0  0  0  0  0  0  0  0  0  0  0
   -8.5341    5.6583  -13.0725 C   0  0  0  0  0  0  0  0  0  0  0  0
   -8.2265    4.3476  -12.7385 C   0  0  0  0  0  0  0  0  0  0  0  0
   -8.4519    5.7864  -14.5269 C   0  0  0  0  0  0  0  0  0  0  0  0
   -7.9433    3.6188  -13.9747 C   0  0  0  0  0  0  0  0  0  0  0  0
   -7.7671    4.9859  -19.1900 C   0  0  0  0  0  0  0  0  0  0  0  0
   -6.7488    5.0453  -16.8976 C   0  0  0  0  0  0  0  0  0  0  0  0
   -8.9321    4.1935  -18.6465 C   0  0  0  0  0  0  0  0  0  0  0  0
   -9.1812    4.5054  -17.1821 C   0  0  0  0  0  0  0  0  0  0  0  0
   -7.9181    4.2241  -16.3843 C   0  0  2  0  0  0  0  0  0  0  0  0
   -8.5534    3.7185   -6.5090 C   0  0  0  0  0  0  0  0  0  0  0  0
   -6.7859    5.3246  -18.2633 N   0  0  0  0  0  0  0  0  0  0  0  0
   -8.1005    4.5363  -14.9917 N   0  0  0  0  0  0  0  0  0  0  0  0
   -9.0310    2.3724   -6.3595 N   0  0  0  0  0  0  0  0  0  0  0  0
   -8.6638    6.8187  -15.1356 O   0  0  0  0  0  0  0  0  0  0  0  0
   -7.6375    2.4416  -14.0157 O   0  0  0  0  0  0  0  0  0  0  0  0
   -7.6804    5.2608  -20.3866 O   0  0  0  0  0  0  0  0  0  0  0  0
   -5.8012    5.3751  -16.1844 O   0  0  0  0  0  0  0  0  0  0  0  0
   -9.0898    6.9027  -10.0052 H   0  0  0  0  0  0  0  0  0  0  0  0
   -9.0886    7.6251  -12.3768 H   0  0  0  0  0  0  0  0  0  0  0  0
   -7.9737    2.8827  -11.1830 H   0  0  0  0  0  0  0  0  0  0  0  0
   -9.8241    4.4410  -19.2321 H   0  0  0  0  0  0  0  0  0  0  0  0
   -8.7148    3.1289  -18.7879 H   0  0  0  0  0  0  0  0  0  0  0  0
   -9.4724    5.5591  -17.0791 H   0  0  0  0  0  0  0  0  0  0  0  0
  -10.0126    3.8941  -16.8125 H   0  0  0  0  0  0  0  0  0  0  0  0
   -7.6443    3.1645  -16.4535 H   0  0  0  0  0  0  0  0  0  0  0  0
   -9.2079    4.3681   -5.9204 H   0  0  0  0  0  0  0  0  0  0  0  0
   -7.5482    3.7602   -6.0799 H   0  0  0  0  0  0  0  0  0  0  0  0
   -5.9924    5.8434  -18.6298 H   0  0  0  0  0  0  0  0  0  0  0  0
   -9.0035    2.1125   -5.3939 H   0  0  0  0  0  0  0  0  0  0  0  0
   -9.9722    2.3127   -6.6931 H   0  0  0  0  0  0  0  0  0  0  0  0
  1  2  3  0  0  0  0
  1  6  1  0  0  0  0
  2 16  1  0  0  0  0
  3  4  1  0  0  0  0
  3  6  2  0  0  0  0
  4  7  2  0  0  0  0
  5  6  1  0  0  0  0
  5  8  2  0  0  0  0
  7  8  1  0  0  0  0
  7  9  1  0  0  0  0
  8 10  1  0  0  0  0
  9 18  1  0  0  0  0
  9 20  2  0  0  0  0
 10 18  1  0  0  0  0
 10 21  2  0  0  0  0
 11 13  1  0  0  0  0
 11 17  1  0  0  0  0
 11 22  2  0  0  0  0
 12 15  1  0  0  0  0
 12 17  1  0  0  0  0
 12 23  2  0  0  0  0
 13 14  1  0  0  0  0
 14 15  1  0  0  0  0
 15 18  1  0  0  0  0
 16 19  1  0  0  0  0
  3 24  1  0  0  0  0
  4 25  1  0  0  0  0
  5 26  1  0  0  0  0
 13 27  1  0  0  0  0
 13 28  1  0  0  0  0
 14 29  1  0  0  0  0
 14 30  1  0  0  0  0
 15 31  1  0  0  0  0
 16 32  1  0  0  0  0
 16 33  1  0  0  0  0
 17 34  1  0  0  0  0
 19 35  1  0  0  0  0
 19 36  1  0  0  0  0
M  END
> <id>
EN300-27118139

> <smiles>
NCC#CC=1C=CC=2C(=O)N(C3CCC(=O)NC3=O)C(=O)C2C1

> <MDLNUMBER>
MFCD32852526

> <IUPAC Name>
5-(3-aminoprop-1-yn-1-yl)-2-(2,6-dioxopiperidin-3-yl)-2,3-dihydro-1H-isoindole-1,3-dione

> <CAS>
2490402-61-2

> <URL>
https://www.enaminestore.com/catalog/EN300-27118139

> <ROCS_ShapeQuery>
_x0404_0B

> <ROCS_TanimotoCombo>
0.453 

> <ROCS_ShapeTanimoto>
0.359 

> <ROCS_ColorTanimoto>
0.094 

> <ROCS_RefTversky>
0.318 

> <ROCS_RefColorTversky>
0.102 

> <ROCS_RefTverskyCombo>
0.420 

> <ROCS_FitTversky>
1.566 

> <ROCS_FitColorTversky>
0.553 

> <ROCS_FitTverskyCombo>
2.120 

> <ROCS_ColorScore>
-7.359

> <ROCS_Overlap>
2123.798

> <ROCS_Rank>
79                  

$$$$
untitled-dbase-161346_730
  -OEChem-08222312023D

 57 59  0     0  0  0  0  0  0999 V2000
   -8.8525    5.0703  -16.3805 B   0  0  0  0  0  0  0  0  0  0  0  0
   -9.0087    4.5232  -13.8852 C   0  0  0  0  0  0  0  0  0  0  0  0
   -8.8226    6.8448  -14.5372 C   0  0  0  0  0  0  0  0  0  0  0  0
   -8.8929    5.4961  -14.8809 C   0  0  0  0  0  0  0  0  0  0  0  0
   -9.0384    4.8837  -12.5303 C   0  0  0  0  0  0  0  0  0  0  0  0
   -8.9589    6.2465  -12.2049 C   0  0  0  0  0  0  0  0  0  0  0  0
   -8.8654    7.2239  -13.1979 C   0  0  0  0  0  0  0  0  0  0  0  0
   -8.9345    3.3725   -9.0241 C   0  0  0  0  0  0  0  0  0  0  0  0
   -9.2232    3.8088  -11.4849 C   0  0  0  0  0  0  0  0  0  0  0  0
   -7.3999    4.9387  -10.1711 C   0  0  0  0  0  0  0  0  0  0  0  0
   -7.8500    6.3992  -10.1608 C   0  0  0  0  0  0  0  0  0  0  0  0
   -9.3991    3.9991  -18.3214 C   0  0  0  0  0  0  0  0  0  0  0  0
   -8.1953    4.9715  -18.5648 C   0  0  0  0  0  0  0  0  0  0  0  0
  -10.5563    4.1501  -19.3189 C   0  0  0  0  0  0  0  0  0  0  0  0
   -9.0213    2.5019  -18.2569 C   0  0  0  0  0  0  0  0  0  0  0  0
   -8.5546    6.2747  -19.3141 C   0  0  0  0  0  0  0  0  0  0  0  0
   -6.9924    4.3360  -19.2763 C   0  0  0  0  0  0  0  0  0  0  0  0
   -8.2914    2.2205   -6.4853 C   0  0  0  0  0  0  0  0  0  0  0  0
   -8.7158    4.5109   -5.5455 C   0  0  0  0  0  0  0  0  0  0  0  0
  -10.5763    3.2586   -6.6762 C   0  0  0  0  0  0  0  0  0  0  0  0
   -9.0715    3.5234   -6.6548 C   0  0  0  0  0  0  0  0  0  0  0  0
   -8.5438    4.0303  -10.1970 N   0  0  0  0  0  0  0  0  0  0  0  0
   -9.4398    2.2520   -8.9922 O   0  0  0  0  0  0  0  0  0  0  0  0
   -9.8913    4.3744  -16.9935 O   0  0  0  0  0  0  0  0  0  0  0  0
   -7.7747    5.3553  -17.2150 O   0  0  0  0  0  0  0  0  0  0  0  0
   -9.0467    6.6660  -10.9047 O   0  0  0  0  0  0  0  0  0  0  0  0
   -8.6959    4.1207   -7.9010 O   0  0  0  0  0  0  0  0  0  0  0  0
   -8.7851    8.9041  -12.8080 Cl  0  0  0  0  0  0  0  0  0  0  0  0
   -9.0835    3.4682  -14.1500 H   0  0  0  0  0  0  0  0  0  0  0  0
   -8.7361    7.6103  -15.3073 H   0  0  0  0  0  0  0  0  0  0  0  0
  -10.3118    3.6762  -11.2829 H   0  0  0  0  0  0  0  0  0  0  0  0
   -8.9087    2.8212  -11.8937 H   0  0  0  0  0  0  0  0  0  0  0  0
   -6.7666    4.7631  -11.0480 H   0  0  0  0  0  0  0  0  0  0  0  0
   -6.8089    4.7069   -9.2766 H   0  0  0  0  0  0  0  0  0  0  0  0
   -8.0759    6.6842   -9.1137 H   0  0  0  0  0  0  0  0  0  0  0  0
   -7.0246    7.0837  -10.4639 H   0  0  0  0  0  0  0  0  0  0  0  0
  -11.3326    3.4388  -19.0664 H   0  0  0  0  0  0  0  0  0  0  0  0
  -10.1862    3.9558  -20.3178 H   0  0  0  0  0  0  0  0  0  0  0  0
  -10.9437    5.1594  -19.2569 H   0  0  0  0  0  0  0  0  0  0  0  0
   -9.9163    1.9107  -18.0862 H   0  0  0  0  0  0  0  0  0  0  0  0
   -8.3197    2.3412  -17.4436 H   0  0  0  0  0  0  0  0  0  0  0  0
   -8.5633    2.2043  -19.1957 H   0  0  0  0  0  0  0  0  0  0  0  0
   -7.6610    6.8801  -19.4348 H   0  0  0  0  0  0  0  0  0  0  0  0
   -9.2933    6.8283  -18.7419 H   0  0  0  0  0  0  0  0  0  0  0  0
   -8.9613    6.0293  -20.2909 H   0  0  0  0  0  0  0  0  0  0  0  0
   -6.2198    5.0850  -19.3963 H   0  0  0  0  0  0  0  0  0  0  0  0
   -7.3099    3.9725  -20.2455 H   0  0  0  0  0  0  0  0  0  0  0  0
   -6.6228    3.5149  -18.6751 H   0  0  0  0  0  0  0  0  0  0  0  0
   -8.5439    1.5090   -7.2796 H   0  0  0  0  0  0  0  0  0  0  0  0
   -7.2102    2.3925   -6.5034 H   0  0  0  0  0  0  0  0  0  0  0  0
   -8.5483    1.7312   -5.5388 H   0  0  0  0  0  0  0  0  0  0  0  0
   -9.2733    5.4472   -5.6631 H   0  0  0  0  0  0  0  0  0  0  0  0
   -7.6534    4.7771   -5.5859 H   0  0  0  0  0  0  0  0  0  0  0  0
   -8.9329    4.1003   -4.5541 H   0  0  0  0  0  0  0  0  0  0  0  0
  -11.1361    4.1929   -6.7977 H   0  0  0  0  0  0  0  0  0  0  0  0
  -10.8549    2.5805   -7.4894 H   0  0  0  0  0  0  0  0  0  0  0  0
  -10.9083    2.8203   -5.7281 H   0  0  0  0  0  0  0  0  0  0  0  0
  1  4  1  0  0  0  0
  1 24  1  0  0  0  0
  1 25  1  0  0  0  0
  2  4  1  0  0  0  0
  2  5  2  0  0  0  0
  3  4  2  0  0  0  0
  3  7  1  0  0  0  0
  5  6  1  0  0  0  0
  5  9  1  0  0  0  0
  6  7  2  0  0  0  0
  6 26  1  0  0  0  0
  7 28  1  0  0  0  0
  8 22  1  0  0  0  0
  8 23  2  0  0  0  0
  8 27  1  0  0  0  0
  9 22  1  0  0  0  0
 10 11  1  0  0  0  0
 10 22  1  0  0  0  0
 11 26  1  0  0  0  0
 12 13  1  0  0  0  0
 12 14  1  0  0  0  0
 12 15  1  0  0  0  0
 12 24  1  0  0  0  0
 13 16  1  0  0  0  0
 13 17  1  0  0  0  0
 13 25  1  0  0  0  0
 18 21  1  0  0  0  0
 19 21  1  0  0  0  0
 20 21  1  0  0  0  0
 21 27  1  0  0  0  0
  2 29  1  0  0  0  0
  3 30  1  0  0  0  0
  9 31  1  0  0  0  0
  9 32  1  0  0  0  0
 10 33  1  0  0  0  0
 10 34  1  0  0  0  0
 11 35  1  0  0  0  0
 11 36  1  0  0  0  0
 14 37  1  0  0  0  0
 14 38  1  0  0  0  0
 14 39  1  0  0  0  0
 15 40  1  0  0  0  0
 15 41  1  0  0  0  0
 15 42  1  0  0  0  0
 16 43  1  0  0  0  0
 16 44  1  0  0  0  0
 16 45  1  0  0  0  0
 17 46  1  0  0  0  0
 17 47  1  0  0  0  0
 17 48  1  0  0  0  0
 18 49  1  0  0  0  0
 18 50  1  0  0  0  0
 18 51  1  0  0  0  0
 19 52  1  0  0  0  0
 19 53  1  0  0  0  0
 19 54  1  0  0  0  0
 20 55  1  0  0  0  0
 20 56  1  0  0  0  0
 20 57  1  0  0  0  0
M  END
> <id>
EN300-28331963

> <smiles>
CC(C)(C)OC(=O)N1CCOC=2C(Cl)=CC(=CC2C1)B3OC(C)(C)C(C)(C)O3

> <MDLNUMBER>
MFCD34475531

> <IUPAC Name>
tert-butyl 9-chloro-7-(4,4,5,5-tetramethyl-1,3,2-dioxaborolan-2-yl)-2,3,4,5-tetrahydro-1,4-benzoxazepine-4-carboxylate

> <Purity>
95

> <URL>
https://www.enaminestore.com/catalog/EN300-28331963

> <ROCS_ShapeQuery>
_x0404_0B

> <ROCS_TanimotoCombo>
0.453 

> <ROCS_ShapeTanimoto>
0.401 

> <ROCS_ColorTanimoto>
0.052 

> <ROCS_RefTversky>
0.352 

> <ROCS_RefColorTversky>
0.057 

> <ROCS_RefTverskyCombo>
0.409 

> <ROCS_FitTversky>
1.536 

> <ROCS_FitColorTversky>
0.362 

> <ROCS_FitTverskyCombo>
1.898 

> <ROCS_ColorScore>
-4.121

> <ROCS_Overlap>
2354.661

> <ROCS_Rank>
80                  

$$$$
untitled-dbase-89815_576
  -OEChem-08222312023D

 46 48  0     0  0  0  0  0  0999 V2000
   -7.6189    1.1413   -7.5325 C   0  0  0  0  0  0  0  0  0  0  0  0
   -7.0151    0.3416   -8.5117 C   0  0  0  0  0  0  0  0  0  0  0  0
   -7.7474    1.8386  -10.2923 C   0  0  0  0  0  0  0  0  0  0  0  0
   -8.2918    2.2999   -7.9473 C   0  0  0  0  0  0  0  0  0  0  0  0
   -8.3387    2.6154   -9.2982 C   0  0  0  0  0  0  0  0  0  0  0  0
   -7.0793    0.6856   -9.8654 C   0  0  0  0  0  0  0  0  0  0  0  0
   -8.4041    5.8180  -14.5634 C   0  0  0  0  0  0  0  0  0  0  0  0
   -8.4161    5.7370  -10.7632 C   0  0  0  0  0  0  0  0  0  0  0  0
   -9.6852    3.7624  -11.7982 C   0  0  0  0  0  0  0  0  0  0  0  0
   -8.5943    6.3879  -12.1294 C   0  0  0  0  0  0  0  0  0  0  0  0
   -8.6468    4.0017  -12.8901 C   0  0  0  0  0  0  0  0  0  0  0  0
   -9.4408    4.6120  -10.5318 C   0  0  0  0  0  0  0  0  0  0  0  0
   -6.9132    5.8217  -17.0051 C   0  0  0  0  0  0  0  0  0  0  0  0
   -8.2076    3.7483  -17.5838 C   0  0  0  0  0  0  0  0  0  0  0  0
   -9.4167    5.9233  -17.2436 C   0  0  0  0  0  0  0  0  0  0  0  0
   -8.2274    5.0662  -16.8126 C   0  0  0  0  0  0  0  0  0  0  0  0
   -8.9638    3.2565   -7.2332 N   0  0  0  0  0  0  0  0  0  0  0  0
   -9.4291    4.1588   -8.0902 N   0  0  0  0  0  0  0  0  0  0  0  0
   -9.0559    3.7765   -9.3227 N   0  0  0  0  0  0  0  0  0  0  0  0
   -8.5420    5.4208  -13.2294 N   0  0  0  0  0  0  0  0  0  0  0  0
   -6.4570   -0.1474  -10.8237 N   0  0  0  0  0  0  0  0  0  0  0  0
   -8.3155    6.9864  -14.9353 O   0  0  0  0  0  0  0  0  0  0  0  0
   -8.3724    4.7509  -15.4231 O   0  0  0  0  0  0  0  0  0  0  0  0
   -7.5640    0.8666   -6.4843 H   0  0  0  0  0  0  0  0  0  0  0  0
   -6.4904   -0.5596   -8.2011 H   0  0  0  0  0  0  0  0  0  0  0  0
   -7.8033    2.1149  -11.3396 H   0  0  0  0  0  0  0  0  0  0  0  0
   -7.3945    5.3382  -10.6782 H   0  0  0  0  0  0  0  0  0  0  0  0
   -8.5151    6.4984   -9.9771 H   0  0  0  0  0  0  0  0  0  0  0  0
  -10.6936    3.9742  -12.1968 H   0  0  0  0  0  0  0  0  0  0  0  0
   -9.6941    2.6891  -11.5311 H   0  0  0  0  0  0  0  0  0  0  0  0
   -9.5780    6.8861  -12.1883 H   0  0  0  0  0  0  0  0  0  0  0  0
   -7.8401    7.1804  -12.2587 H   0  0  0  0  0  0  0  0  0  0  0  0
   -7.6750    3.6072  -12.5714 H   0  0  0  0  0  0  0  0  0  0  0  0
   -8.9282    3.4689  -13.8078 H   0  0  0  0  0  0  0  0  0  0  0  0
  -10.4100    5.0736  -10.2072 H   0  0  0  0  0  0  0  0  0  0  0  0
   -6.9235    6.7683  -16.4530 H   0  0  0  0  0  0  0  0  0  0  0  0
   -6.0553    5.2313  -16.6671 H   0  0  0  0  0  0  0  0  0  0  0  0
   -6.7617    6.0803  -18.0593 H   0  0  0  0  0  0  0  0  0  0  0  0
   -9.1486    3.2029  -17.4485 H   0  0  0  0  0  0  0  0  0  0  0  0
   -7.4135    3.0906  -17.2123 H   0  0  0  0  0  0  0  0  0  0  0  0
   -8.0513    3.9095  -18.6553 H   0  0  0  0  0  0  0  0  0  0  0  0
  -10.3595    5.3816  -17.1056 H   0  0  0  0  0  0  0  0  0  0  0  0
   -9.4682    6.8571  -16.6745 H   0  0  0  0  0  0  0  0  0  0  0  0
   -9.3542    6.1684  -18.3101 H   0  0  0  0  0  0  0  0  0  0  0  0
   -6.5462    0.0778  -11.7920 H   0  0  0  0  0  0  0  0  0  0  0  0
   -6.0222   -0.9932  -10.5203 H   0  0  0  0  0  0  0  0  0  0  0  0
  1  2  1  0  0  0  0
  1  4  2  0  0  0  0
  2  6  2  0  0  0  0
  3  5  2  0  0  0  0
  3  6  1  0  0  0  0
  4  5  1  0  0  0  0
  4 17  1  0  0  0  0
  5 19  1  0  0  0  0
  6 21  1  0  0  0  0
  7 20  1  0  0  0  0
  7 22  2  0  0  0  0
  7 23  1  0  0  0  0
  8 10  1  0  0  0  0
  8 12  1  0  0  0  0
  9 11  1  0  0  0  0
  9 12  1  0  0  0  0
 10 20  1  0  0  0  0
 11 20  1  0  0  0  0
 12 19  1  0  0  0  0
 13 16  1  0  0  0  0
 14 16  1  0  0  0  0
 15 16  1  0  0  0  0
 16 23  1  0  0  0  0
 17 18  2  0  0  0  0
 18 19  1  0  0  0  0
  1 24  1  0  0  0  0
  2 25  1  0  0  0  0
  3 26  1  0  0  0  0
  8 27  1  0  0  0  0
  8 28  1  0  0  0  0
  9 29  1  0  0  0  0
  9 30  1  0  0  0  0
 10 31  1  0  0  0  0
 10 32  1  0  0  0  0
 11 33  1  0  0  0  0
 11 34  1  0  0  0  0
 12 35  1  0  0  0  0
 13 36  1  0  0  0  0
 13 37  1  0  0  0  0
 13 38  1  0  0  0  0
 14 39  1  0  0  0  0
 14 40  1  0  0  0  0
 14 41  1  0  0  0  0
 15 42  1  0  0  0  0
 15 43  1  0  0  0  0
 15 44  1  0  0  0  0
 21 45  1  0  0  0  0
 21 46  1  0  0  0  0
M  END
> <id>
EN300-6750489

> <smiles>
CC(C)(C)OC(=O)N1CCC(CC1)N2N=NC=3C=CC(N)=CC23

> <IUPAC Name>
tert-butyl 4-(6-amino-1H-1,2,3-benzotriazol-1-yl)piperidine-1-carboxylate

> <CAS>
2287271-14-9

> <URL>
https://www.enaminestore.com/catalog/EN300-6750489

> <ROCS_ShapeQuery>
_x0404_0B

> <ROCS_TanimotoCombo>
0.453 

> <ROCS_ShapeTanimoto>
0.316 

> <ROCS_ColorTanimoto>
0.137 

> <ROCS_RefTversky>
0.288 

> <ROCS_RefColorTversky>
0.141 

> <ROCS_RefTverskyCombo>
0.430 

> <ROCS_FitTversky>
1.437 

> <ROCS_FitColorTversky>
0.807 

> <ROCS_FitTverskyCombo>
2.243 

> <ROCS_ColorScore>
-10.225

> <ROCS_Overlap>
1926.432

> <ROCS_Rank>
81                  

$$$$
untitled-dbase-180724_0
  -OEChem-08222312023D

 30 33  0     0  0  0  0  0  0999 V2000
   -8.4210    6.8091  -16.6160 C   0  0  0  0  0  0  0  0  0  0  0  0
   -8.5822    4.0608  -16.1175 C   0  0  0  0  0  0  0  0  0  0  0  0
   -9.2010    3.4934   -7.5443 C   0  0  0  0  0  0  0  0  0  0  0  0
   -8.5331    6.3343  -15.3063 C   0  0  0  0  0  0  0  0  0  0  0  0
   -9.0857    4.2988   -8.6853 C   0  0  0  0  0  0  0  0  0  0  0  0
   -8.6146    4.9605  -15.0485 C   0  0  0  0  0  0  0  0  0  0  0  0
   -8.3900    5.9019  -17.6749 C   0  0  0  0  0  0  0  0  0  0  0  0
   -8.4702    4.5313  -17.4268 C   0  0  0  0  0  0  0  0  0  0  0  0
   -9.0536    3.4197   -9.7417 C   0  0  0  0  0  0  0  0  0  0  0  0
   -8.5691    7.2688  -14.1486 C   0  0  0  0  0  0  0  0  0  0  0  0
   -9.0028    5.7126   -8.9460 C   0  0  0  0  0  0  0  0  0  0  0  0
   -8.8736    4.9681  -11.3049 C   0  0  0  0  0  0  0  0  0  0  0  0
   -8.7540    5.4517  -12.7044 C   0  0  0  0  0  0  0  0  0  0  0  0
   -9.2394    2.1900   -7.8490 N   0  0  0  0  0  0  0  0  0  0  0  0
   -8.9499    3.6868  -11.0646 N   0  0  0  0  0  0  0  0  0  0  0  0
   -8.6820    6.7474  -12.8722 N   0  0  0  0  0  0  0  0  0  0  0  0
   -9.1484    2.1765   -9.1950 N   0  0  0  0  0  0  0  0  0  0  0  0
   -8.7260    4.5266  -13.7260 N   0  0  0  0  0  0  0  0  0  0  0  0
   -8.8960    5.9702  -10.3196 N   0  0  0  0  0  0  0  0  0  0  0  0
   -8.4967    8.4742  -14.3667 O   0  0  0  0  0  0  0  0  0  0  0  0
   -9.0240    6.5677   -8.0690 O   0  0  0  0  0  0  0  0  0  0  0  0
   -8.2806    6.3558  -18.9537 O   0  0  0  0  0  0  0  0  0  0  0  0
   -8.4409    3.6595  -18.4443 F   0  0  0  0  0  0  0  0  0  0  0  0
   -8.3573    7.8738  -16.8233 H   0  0  0  0  0  0  0  0  0  0  0  0
   -8.6439    2.9903  -15.9398 H   0  0  0  0  0  0  0  0  0  0  0  0
   -9.2589    3.7884   -6.5065 H   0  0  0  0  0  0  0  0  0  0  0  0
   -9.1565    1.2823   -9.6696 H   0  0  0  0  0  0  0  0  0  0  0  0
   -8.7849    3.5313  -13.5472 H   0  0  0  0  0  0  0  0  0  0  0  0
   -8.8309    6.9386  -10.6209 H   0  0  0  0  0  0  0  0  0  0  0  0
   -8.2722    5.6106  -19.5752 H   0  0  0  0  0  0  0  0  0  0  0  0
  1  4  1  0  0  0  0
  1  7  2  0  0  0  0
  2  6  1  0  0  0  0
  2  8  2  0  0  0  0
  3  5  1  0  0  0  0
  3 14  2  0  0  0  0
  4  6  2  0  0  0  0
  4 10  1  0  0  0  0
  5  9  2  0  0  0  0
  5 11  1  0  0  0  0
  6 18  1  0  0  0  0
  7  8  1  0  0  0  0
  7 22  1  0  0  0  0
  8 23  1  0  0  0  0
  9 15  1  0  0  0  0
  9 17  1  0  0  0  0
 10 16  1  0  0  0  0
 10 20  2  0  0  0  0
 11 19  1  0  0  0  0
 11 21  2  0  0  0  0
 12 13  1  0  0  0  0
 12 15  2  0  0  0  0
 12 19  1  0  0  0  0
 13 16  2  0  0  0  0
 13 18  1  0  0  0  0
 14 17  1  0  0  0  0
  1 24  1  0  0  0  0
  2 25  1  0  0  0  0
  3 26  1  0  0  0  0
 17 27  1  0  0  0  0
 18 28  1  0  0  0  0
 19 29  1  0  0  0  0
 22 30  1  0  0  0  0
M  END
> <id>
EN300-39848085

> <smiles>
Cl.OC=1C=C2C(=O)N=C(NC2=CC1F)C3=NC=4NN=CC4C(=O)N3

> <IUPAC Name>
7-fluoro-6-hydroxy-2-{4-oxo-1H,4H,5H-pyrazolo[3,4-d]pyrimidin-6-yl}-1,4-dihydroquinazolin-4-one hydrochloride

> <Purity>
95

> <URL>
https://www.enaminestore.com/catalog/EN300-39848085

> <Saltdate>
Cl

> <ROCS_ShapeQuery>
_x0404_0B

> <ROCS_TanimotoCombo>
0.453 

> <ROCS_ShapeTanimoto>
0.368 

> <ROCS_ColorTanimoto>
0.085 

> <ROCS_RefTversky>
0.326 

> <ROCS_RefColorTversky>
0.098 

> <ROCS_RefTverskyCombo>
0.423 

> <ROCS_FitTversky>
1.547 

> <ROCS_FitColorTversky>
0.392 

> <ROCS_FitTverskyCombo>
1.939 

> <ROCS_ColorScore>
-7.078

> <ROCS_Overlap>
2174.813

> <ROCS_Rank>
82                  

$$$$
untitled-dbase-153881_7
  -OEChem-08222312023D

 41 43  0     0  0  0  0  0  0999 V2000
   -7.9230    3.3023  -12.8285 C   0  0  0  0  0  0  0  0  0  0  0  0
   -8.8280    1.6411   -8.8091 C   0  0  0  0  0  0  0  0  0  0  0  0
   -8.9725    2.1721   -7.5290 C   0  0  0  0  0  0  0  0  0  0  0  0
   -8.7436    2.4866   -9.9167 C   0  0  0  0  0  0  0  0  0  0  0  0
   -9.0361    3.5530   -7.3480 C   0  0  0  0  0  0  0  0  0  0  0  0
   -8.3204    4.5451  -12.2386 C   0  0  0  0  0  0  0  0  0  0  0  0
   -8.8088    3.8751   -9.7490 C   0  0  0  0  0  0  0  0  0  0  0  0
   -8.7255    4.7846  -10.8904 C   0  0  0  0  0  0  0  0  0  0  0  0
   -8.9676    4.4147   -8.4506 C   0  0  0  0  0  0  0  0  0  0  0  0
   -9.0830    6.1070  -10.7034 C   0  0  0  0  0  0  0  0  0  0  0  0
   -8.3839    5.6853  -13.0117 C   0  0  0  0  0  0  0  0  0  0  0  0
   -8.1866    5.0261  -15.4278 C   0  0  0  0  0  0  0  0  0  0  0  0
   -8.9781    5.9153   -8.2329 C   0  0  0  0  0  0  0  0  0  0  0  0
   -9.5821    6.6833   -9.4169 C   0  0  0  0  0  0  0  0  0  0  0  0
   -9.2788    4.4105  -17.9983 C   0  0  0  0  0  0  0  0  0  0  0  0
   -7.3812    5.7702  -18.9255 C   0  0  0  0  0  0  0  0  0  0  0  0
   -6.9002    3.6854  -17.6100 C   0  0  0  0  0  0  0  0  0  0  0  0
   -7.8413    4.8778  -17.7748 C   0  0  0  0  0  0  0  0  0  0  0  0
   -7.6011    2.2951  -13.3067 N   0  0  0  0  0  0  0  0  0  0  0  0
   -8.0953    5.9070  -14.3324 N   0  0  0  0  0  0  0  0  0  0  0  0
   -8.5546    3.8583  -15.3916 O   0  0  0  0  0  0  0  0  0  0  0  0
   -7.7980    5.6619  -16.5768 O   0  0  0  0  0  0  0  0  0  0  0  0
   -8.9346    7.0385  -12.1202 S   0  0  0  0  0  0  0  0  0  0  0  0
   -8.7770    0.5643   -8.9451 H   0  0  0  0  0  0  0  0  0  0  0  0
   -9.0388    1.5095   -6.6709 H   0  0  0  0  0  0  0  0  0  0  0  0
   -8.5965    2.0156  -10.8807 H   0  0  0  0  0  0  0  0  0  0  0  0
   -9.1427    3.9532   -6.3431 H   0  0  0  0  0  0  0  0  0  0  0  0
   -9.5646    6.1149   -7.3266 H   0  0  0  0  0  0  0  0  0  0  0  0
   -7.9617    6.2850   -8.0535 H   0  0  0  0  0  0  0  0  0  0  0  0
   -9.2755    7.7360   -9.3664 H   0  0  0  0  0  0  0  0  0  0  0  0
  -10.6756    6.6548   -9.3531 H   0  0  0  0  0  0  0  0  0  0  0  0
   -9.6128    3.7698  -17.1744 H   0  0  0  0  0  0  0  0  0  0  0  0
   -9.9693    5.2561  -18.0831 H   0  0  0  0  0  0  0  0  0  0  0  0
   -9.3566    3.8074  -18.9101 H   0  0  0  0  0  0  0  0  0  0  0  0
   -6.3503    6.1078  -18.7693 H   0  0  0  0  0  0  0  0  0  0  0  0
   -7.9963    6.6752  -18.9876 H   0  0  0  0  0  0  0  0  0  0  0  0
   -7.4334    5.2488  -19.8868 H   0  0  0  0  0  0  0  0  0  0  0  0
   -5.8690    4.0203  -17.4497 H   0  0  0  0  0  0  0  0  0  0  0  0
   -7.1936    3.0537  -16.7654 H   0  0  0  0  0  0  0  0  0  0  0  0
   -6.8880    3.0704  -18.5172 H   0  0  0  0  0  0  0  0  0  0  0  0
   -7.7610    6.8623  -14.5586 H   0  0  0  0  0  0  0  0  0  0  0  0
  1  6  1  0  0  0  0
  1 19  3  0  0  0  0
  2  3  2  0  0  0  0
  2  4  1  0  0  0  0
  3  5  1  0  0  0  0
  4  7  2  0  0  0  0
  5  9  2  0  0  0  0
  6  8  1  0  0  0  0
  6 11  2  0  0  0  0
  7  8  1  0  0  0  0
  7  9  1  0  0  0  0
  8 10  2  0  0  0  0
  9 13  1  0  0  0  0
 10 14  1  0  0  0  0
 10 23  1  0  0  0  0
 11 20  1  0  0  0  0
 11 23  1  0  0  0  0
 12 20  1  0  0  0  0
 12 21  2  0  0  0  0
 12 22  1  0  0  0  0
 13 14  1  0  0  0  0
 15 18  1  0  0  0  0
 16 18  1  0  0  0  0
 17 18  1  0  0  0  0
 18 22  1  0  0  0  0
  2 24  1  0  0  0  0
  3 25  1  0  0  0  0
  4 26  1  0  0  0  0
  5 27  1  0  0  0  0
 13 28  1  0  0  0  0
 13 29  1  0  0  0  0
 14 30  1  0  0  0  0
 14 31  1  0  0  0  0
 15 32  1  0  0  0  0
 15 33  1  0  0  0  0
 15 34  1  0  0  0  0
 16 35  1  0  0  0  0
 16 36  1  0  0  0  0
 16 37  1  0  0  0  0
 17 38  1  0  0  0  0
 17 39  1  0  0  0  0
 17 40  1  0  0  0  0
 20 41  1  0  0  0  0
M  END
> <id>
EN300-28294907

> <smiles>
CC(C)(C)OC(=O)NC=1SC=2CCC=3C=CC=CC3C2C1C#N

> <IUPAC Name>
tert-butyl N-{1-cyano-4H,5H-naphtho[2,1-b]thiophen-2-yl}carbamate

> <CAS>
2680756-86-7

> <URL>
https://www.enaminestore.com/catalog/EN300-28294907

> <ROCS_ShapeQuery>
_x0404_0B

> <ROCS_TanimotoCombo>
0.452 

> <ROCS_ShapeTanimoto>
0.378 

> <ROCS_ColorTanimoto>
0.074 

> <ROCS_RefTversky>
0.329 

> <ROCS_RefColorTversky>
0.079 

> <ROCS_RefTverskyCombo>
0.408 

> <ROCS_FitTversky>
1.656 

> <ROCS_FitColorTversky>
0.547 

> <ROCS_FitTverskyCombo>
2.203 

> <ROCS_ColorScore>
-5.709

> <ROCS_Overlap>
2195.588

> <ROCS_Rank>
83                  

$$$$
untitled-dbase-15341_7
  -OEChem-08222312023D

 47 49  0     0  0  0  0  0  0999 V2000
   -6.9823    5.8684  -17.0050 C   0  0  0  0  0  0  0  0  0  0  0  0
   -7.1996    6.6095  -15.8377 C   0  0  0  0  0  0  0  0  0  0  0  0
   -8.1558    4.2152  -18.6464 C   0  0  0  0  0  0  0  0  0  0  0  0
   -9.4792    5.7840  -15.6744 C   0  0  0  0  0  0  0  0  0  0  0  0
   -9.4303    3.6971  -18.6339 C   0  0  0  0  0  0  0  0  0  0  0  0
   -8.0256    5.0723  -17.5179 C   0  0  0  0  0  0  0  0  0  0  0  0
   -8.4296    6.5664  -15.1843 C   0  0  0  0  0  0  0  0  0  0  0  0
   -9.2475    5.0485  -16.8421 C   0  0  0  0  0  0  0  0  0  0  0  0
   -8.6276    7.3491  -13.9698 C   0  0  0  0  0  0  0  0  0  0  0  0
   -8.8265    4.7945   -9.0608 C   0  0  0  0  0  0  0  0  0  0  0  0
   -9.1207    5.1907  -12.6834 C   0  0  0  0  0  0  0  0  0  0  0  0
   -9.2677    7.3826  -11.5677 C   0  0  0  0  0  0  0  0  0  0  0  0
   -8.2843    4.6468  -11.5290 C   0  0  0  0  0  0  0  0  0  0  0  0
   -8.4392    6.8493  -10.4022 C   0  0  0  0  0  0  0  0  0  0  0  0
  -10.4618    3.1261   -7.4077 C   0  0  0  0  0  0  0  0  0  0  0  0
   -9.0027    1.2372   -8.1905 C   0  0  0  0  0  0  0  0  0  0  0  0
   -8.0016    3.1291   -6.8764 C   0  0  0  0  0  0  0  0  0  0  0  0
   -9.0682    2.7345   -7.8969 C   0  0  0  0  0  0  0  0  0  0  0  0
  -10.0812    4.2057  -17.5421 N   0  0  0  0  0  0  0  0  0  0  0  0
   -8.9559    6.6478  -12.7963 N   0  0  0  0  0  0  0  0  0  0  0  0
   -8.5589    5.3937  -10.2942 N   0  0  0  0  0  0  0  0  0  0  0  0
   -8.5044    8.5749  -13.9953 O   0  0  0  0  0  0  0  0  0  0  0  0
   -9.0570    5.4153   -8.0246 O   0  0  0  0  0  0  0  0  0  0  0  0
   -8.8044    3.4264   -9.1229 O   0  0  0  0  0  0  0  0  0  0  0  0
   -6.0184    5.9118  -17.5039 H   0  0  0  0  0  0  0  0  0  0  0  0
   -6.3899    7.2217  -15.4472 H   0  0  0  0  0  0  0  0  0  0  0  0
   -7.3988    3.9991  -19.3877 H   0  0  0  0  0  0  0  0  0  0  0  0
  -10.4407    5.7440  -15.1717 H   0  0  0  0  0  0  0  0  0  0  0  0
   -9.9312    3.0130  -19.3042 H   0  0  0  0  0  0  0  0  0  0  0  0
   -8.8392    4.6830  -13.6093 H   0  0  0  0  0  0  0  0  0  0  0  0
  -10.1860    4.9939  -12.5128 H   0  0  0  0  0  0  0  0  0  0  0  0
  -10.3389    7.2576  -11.3703 H   0  0  0  0  0  0  0  0  0  0  0  0
   -9.0787    8.4526  -11.7010 H   0  0  0  0  0  0  0  0  0  0  0  0
   -8.4863    3.5799  -11.4011 H   0  0  0  0  0  0  0  0  0  0  0  0
   -7.2147    4.7556  -11.7441 H   0  0  0  0  0  0  0  0  0  0  0  0
   -7.3772    7.0788  -10.5498 H   0  0  0  0  0  0  0  0  0  0  0  0
   -8.7534    7.3318   -9.4712 H   0  0  0  0  0  0  0  0  0  0  0  0
  -10.5129    4.2001   -7.1959 H   0  0  0  0  0  0  0  0  0  0  0  0
  -11.2323    2.8801   -8.1457 H   0  0  0  0  0  0  0  0  0  0  0  0
  -10.7051    2.6141   -6.4696 H   0  0  0  0  0  0  0  0  0  0  0  0
   -8.0046    0.9518   -8.5418 H   0  0  0  0  0  0  0  0  0  0  0  0
   -9.7009    0.9654   -8.9904 H   0  0  0  0  0  0  0  0  0  0  0  0
   -9.2419    0.6409   -7.3040 H   0  0  0  0  0  0  0  0  0  0  0  0
   -7.0019    2.8483   -7.2271 H   0  0  0  0  0  0  0  0  0  0  0  0
   -8.0094    4.2063   -6.6810 H   0  0  0  0  0  0  0  0  0  0  0  0
   -8.1559    2.6020   -5.9279 H   0  0  0  0  0  0  0  0  0  0  0  0
  -11.0353    3.9934  -17.2855 H   0  0  0  0  0  0  0  0  0  0  0  0
  1  2  1  0  0  0  0
  1  6  2  0  0  0  0
  2  7  2  0  0  0  0
  3  5  2  0  0  0  0
  3  6  1  0  0  0  0
  4  7  1  0  0  0  0
  4  8  2  0  0  0  0
  5 19  1  0  0  0  0
  6  8  1  0  0  0  0
  7  9  1  0  0  0  0
  8 19  1  0  0  0  0
  9 20  1  0  0  0  0
  9 22  2  0  0  0  0
 10 21  1  0  0  0  0
 10 23  2  0  0  0  0
 10 24  1  0  0  0  0
 11 13  1  0  0  0  0
 11 20  1  0  0  0  0
 12 14  1  0  0  0  0
 12 20  1  0  0  0  0
 13 21  1  0  0  0  0
 14 21  1  0  0  0  0
 15 18  1  0  0  0  0
 16 18  1  0  0  0  0
 17 18  1  0  0  0  0
 18 24  1  0  0  0  0
  1 25  1  0  0  0  0
  2 26  1  0  0  0  0
  3 27  1  0  0  0  0
  4 28  1  0  0  0  0
  5 29  1  0  0  0  0
 11 30  1  0  0  0  0
 11 31  1  0  0  0  0
 12 32  1  0  0  0  0
 12 33  1  0  0  0  0
 13 34  1  0  0  0  0
 13 35  1  0  0  0  0
 14 36  1  0  0  0  0
 14 37  1  0  0  0  0
 15 38  1  0  0  0  0
 15 39  1  0  0  0  0
 15 40  1  0  0  0  0
 16 41  1  0  0  0  0
 16 42  1  0  0  0  0
 16 43  1  0  0  0  0
 17 44  1  0  0  0  0
 17 45  1  0  0  0  0
 17 46  1  0  0  0  0
 19 47  1  0  0  0  0
M  END
> <id>
EN300-238580

> <smiles>
CC(C)(C)OC(=O)N1CCN(CC1)C(=O)C=2C=CC=3C=CNC3C2

> <MDLNUMBER>
MFCD09846082

> <IUPAC Name>
tert-butyl 4-(1H-indole-6-carbonyl)piperazine-1-carboxylate

> <CAS>
913388-30-4

> <URL>
https://www.enaminestore.com/catalog/EN300-238580

> <ROCS_ShapeQuery>
_x0404_0B

> <ROCS_TanimotoCombo>
0.452 

> <ROCS_ShapeTanimoto>
0.393 

> <ROCS_ColorTanimoto>
0.059 

> <ROCS_RefTversky>
0.341 

> <ROCS_RefColorTversky>
0.064 

> <ROCS_RefTverskyCombo>
0.405 

> <ROCS_FitTversky>
1.639 

> <ROCS_FitColorTversky>
0.442 

> <ROCS_FitTverskyCombo>
2.082 

> <ROCS_ColorScore>
-4.620

> <ROCS_Overlap>
2275.364

> <ROCS_Rank>
84                  

$$$$
untitled-dbase-114600_9
  -OEChem-08222312023D

 51 55  0     1  0  0  0  0  0999 V2000
   -8.5222    3.9668   -9.5345 C   0  0  0  0  0  0  0  0  0  0  0  0
   -8.7629    4.7174  -10.6793 C   0  0  0  0  0  0  0  0  0  0  0  0
   -9.0048    6.0789  -10.5270 C   0  0  0  0  0  0  0  0  0  0  0  0
   -8.5609    4.6076   -8.3138 C   0  0  0  0  0  0  0  0  0  0  0  0
   -8.7168    6.9849  -14.1831 C   0  0  0  0  0  0  0  0  0  0  0  0
   -8.7058    4.0856  -12.0401 C   0  0  0  0  0  0  0  0  0  0  0  0
   -9.2630    6.9720  -11.7097 C   0  0  0  0  0  0  0  0  0  0  0  0
   -7.5014    5.0628  -15.2141 C   0  0  0  0  0  0  0  0  0  0  0  0
   -8.7219    3.5112  -16.7594 C   0  0  0  0  0  0  0  0  0  0  0  0
   -6.9883    5.0794  -17.6684 C   0  0  0  0  0  0  0  0  0  0  0  0
   -9.9315    5.4507  -15.7147 C   0  0  0  0  0  0  0  0  0  0  0  0
   -8.1957    7.0206  -16.6258 C   0  0  0  0  0  0  0  0  0  0  0  0
   -9.4194    5.4665  -18.1755 C   0  0  0  0  0  0  0  0  0  0  0  0
   -9.4660    4.9070  -13.0759 C   0  0  0  0  0  0  0  0  0  0  0  0
   -7.3733    4.1921  -16.4736 C   0  0  0  0  0  0  0  0  0  0  0  0
   -8.5838    6.1376  -15.4245 C   0  0  0  0  0  0  0  0  0  0  0  0
   -9.8258    4.5705  -16.9816 C   0  0  1  0  0  0  0  0  0  0  0  0
   -8.0646    6.1631  -17.9055 C   0  0  2  0  0  0  0  0  0  0  0  0
  -11.1665    3.8866  -17.2648 C   0  0  0  0  0  0  0  0  0  0  0  0
   -7.6755    7.0443  -19.0961 C   0  0  0  0  0  0  0  0  0  0  0  0
   -9.0373    6.6674   -9.3078 N   0  0  0  0  0  0  0  0  0  0  0  0
   -8.8138    5.9246   -8.1883 N   0  0  0  0  0  0  0  0  0  0  0  0
   -9.0798    6.3166  -13.0115 N   0  0  0  0  0  0  0  0  0  0  0  0
   -8.5100    8.1987  -14.2542 O   0  0  0  0  0  0  0  0  0  0  0  0
   -8.2891    3.7704   -6.8455 Cl  0  0  0  0  0  0  0  0  0  0  0  0
   -8.3077    2.9047   -9.6045 H   0  0  0  0  0  0  0  0  0  0  0  0
   -7.6632    3.9866  -12.3646 H   0  0  0  0  0  0  0  0  0  0  0  0
   -9.1345    3.0779  -11.9776 H   0  0  0  0  0  0  0  0  0  0  0  0
  -10.2772    7.3714  -11.6278 H   0  0  0  0  0  0  0  0  0  0  0  0
   -8.5620    7.8144  -11.6792 H   0  0  0  0  0  0  0  0  0  0  0  0
   -7.7490    4.4325  -14.3497 H   0  0  0  0  0  0  0  0  0  0  0  0
   -6.5364    5.5331  -14.9836 H   0  0  0  0  0  0  0  0  0  0  0  0
   -8.6296    2.8678  -17.6440 H   0  0  0  0  0  0  0  0  0  0  0  0
   -8.9886    2.8557  -15.9203 H   0  0  0  0  0  0  0  0  0  0  0  0
   -6.0135    5.5476  -17.4802 H   0  0  0  0  0  0  0  0  0  0  0  0
   -6.8707    4.4583  -18.5658 H   0  0  0  0  0  0  0  0  0  0  0  0
  -10.2356    4.8397  -14.8536 H   0  0  0  0  0  0  0  0  0  0  0  0
  -10.7193    6.2058  -15.8427 H   0  0  0  0  0  0  0  0  0  0  0  0
   -8.9479    7.8076  -16.7750 H   0  0  0  0  0  0  0  0  0  0  0  0
   -7.2504    7.5410  -16.4192 H   0  0  0  0  0  0  0  0  0  0  0  0
   -9.3521    4.8617  -19.0899 H   0  0  0  0  0  0  0  0  0  0  0  0
  -10.1969    6.2206  -18.3578 H   0  0  0  0  0  0  0  0  0  0  0  0
   -9.2351    4.5590  -14.0907 H   0  0  0  0  0  0  0  0  0  0  0  0
  -10.5439    4.7847  -12.9289 H   0  0  0  0  0  0  0  0  0  0  0  0
   -6.6019    3.4298  -16.3175 H   0  0  0  0  0  0  0  0  0  0  0  0
  -11.9350    4.6401  -17.4193 H   0  0  0  0  0  0  0  0  0  0  0  0
  -11.4418    3.2597  -16.4201 H   0  0  0  0  0  0  0  0  0  0  0  0
  -11.0809    3.2713  -18.1572 H   0  0  0  0  0  0  0  0  0  0  0  0
   -8.4388    7.8025  -19.2539 H   0  0  0  0  0  0  0  0  0  0  0  0
   -7.5867    6.4315  -19.9900 H   0  0  0  0  0  0  0  0  0  0  0  0
   -6.7229    7.5287  -18.8955 H   0  0  0  0  0  0  0  0  0  0  0  0
  1  2  2  0  0  0  0
  1  4  1  0  0  0  0
  2  3  1  0  0  0  0
  2  6  1  0  0  0  0
  3  7  1  0  0  0  0
  3 21  2  0  0  0  0
  4 22  2  0  0  0  0
  4 25  1  0  0  0  0
  5 16  1  0  0  0  0
  5 23  1  0  0  0  0
  5 24  2  0  0  0  0
  6 14  1  0  0  0  0
  7 23  1  0  0  0  0
  8 15  1  0  0  0  0
  8 16  1  0  0  0  0
  9 15  1  0  0  0  0
  9 17  1  0  0  0  0
 10 15  1  0  0  0  0
 10 18  1  0  0  0  0
 11 16  1  0  0  0  0
 11 17  1  0  0  0  0
 12 16  1  0  0  0  0
 12 18  1  0  0  0  0
 13 17  1  0  0  0  0
 13 18  1  0  0  0  0
 14 23  1  0  0  0  0
 17 19  1  0  0  0  0
 18 20  1  0  0  0  0
 21 22  1  0  0  0  0
  1 26  1  0  0  0  0
  6 27  1  0  0  0  0
  6 28  1  0  0  0  0
  7 29  1  0  0  0  0
  7 30  1  0  0  0  0
  8 31  1  0  0  0  0
  8 32  1  0  0  0  0
  9 33  1  0  0  0  0
  9 34  1  0  0  0  0
 10 35  1  0  0  0  0
 10 36  1  0  0  0  0
 11 37  1  0  0  0  0
 11 38  1  0  0  0  0
 12 39  1  0  0  0  0
 12 40  1  0  0  0  0
 13 41  1  0  0  0  0
 13 42  1  0  0  0  0
 14 43  1  0  0  0  0
 14 44  1  0  0  0  0
 15 45  1  0  0  0  0
 19 46  1  0  0  0  0
 19 47  1  0  0  0  0
 19 48  1  0  0  0  0
 20 49  1  0  0  0  0
 20 50  1  0  0  0  0
 20 51  1  0  0  0  0
M  END
> <id>
EN300-26610971

> <smiles>
CC1(CC2CC3(C)C1)CC(C2)(C3)C(=O)N4CCC=5C=C(Cl)N=NC5C4

> <IUPAC Name>
3-chloro-7-(3,5-dimethyladamantane-1-carbonyl)-5H,6H,7H,8H-pyrido[3,4-c]pyridazine

> <CAS>
2411277-49-9

> <URL>
https://www.enaminestore.com/catalog/EN300-26610971

> <ROCS_ShapeQuery>
_x0404_0B

> <ROCS_TanimotoCombo>
0.452 

> <ROCS_ShapeTanimoto>
0.362 

> <ROCS_ColorTanimoto>
0.090 

> <ROCS_RefTversky>
0.323 

> <ROCS_RefColorTversky>
0.099 

> <ROCS_RefTverskyCombo>
0.423 

> <ROCS_FitTversky>
1.500 

> <ROCS_FitColorTversky>
0.480 

> <ROCS_FitTverskyCombo>
1.980 

> <ROCS_ColorScore>
-7.187

> <ROCS_Overlap>
2160.390

> <ROCS_Rank>
85                  

$$$$
untitled-dbase-93027_1162
  -OEChem-08222312023D

 45 47  0     0  0  0  0  0  0999 V2000
   -7.6031    1.1039   -7.5588 C   0  0  0  0  0  0  0  0  0  0  0  0
   -6.9979    0.3095   -8.5415 C   0  0  0  0  0  0  0  0  0  0  0  0
   -7.7335    1.8128  -10.3155 C   0  0  0  0  0  0  0  0  0  0  0  0
   -8.2783    2.2629   -7.9684 C   0  0  0  0  0  0  0  0  0  0  0  0
   -8.3261    2.5842   -9.3180 C   0  0  0  0  0  0  0  0  0  0  0  0
   -7.0631    0.6592   -9.8937 C   0  0  0  0  0  0  0  0  0  0  0  0
   -8.3988    5.8090  -14.5693 C   0  0  0  0  0  0  0  0  0  0  0  0
   -8.4098    5.7118  -10.7695 C   0  0  0  0  0  0  0  0  0  0  0  0
   -9.6753    3.7392  -11.8127 C   0  0  0  0  0  0  0  0  0  0  0  0
   -8.5896    6.3682  -12.1329 C   0  0  0  0  0  0  0  0  0  0  0  0
   -8.6376    3.9851  -12.9038 C   0  0  0  0  0  0  0  0  0  0  0  0
   -9.4323    4.5839  -10.5427 C   0  0  0  0  0  0  0  0  0  0  0  0
   -6.9084    5.8260  -17.0113 C   0  0  0  0  0  0  0  0  0  0  0  0
   -8.1989    3.7526  -17.5986 C   0  0  0  0  0  0  0  0  0  0  0  0
   -9.4122    5.9238  -17.2489 C   0  0  0  0  0  0  0  0  0  0  0  0
   -8.2211    5.0672  -16.8217 C   0  0  0  0  0  0  0  0  0  0  0  0
   -8.9520    3.2152   -7.2501 N   0  0  0  0  0  0  0  0  0  0  0  0
   -9.4192    4.1203   -8.1031 N   0  0  0  0  0  0  0  0  0  0  0  0
   -9.0456    3.7440   -9.3373 N   0  0  0  0  0  0  0  0  0  0  0  0
   -8.5357    5.4059  -13.2370 N   0  0  0  0  0  0  0  0  0  0  0  0
   -8.3125    6.9792  -14.9363 O   0  0  0  0  0  0  0  0  0  0  0  0
   -6.4613   -0.1394  -10.8217 O   0  0  0  0  0  0  0  0  0  0  0  0
   -8.3652    4.7457  -15.4336 O   0  0  0  0  0  0  0  0  0  0  0  0
   -7.5474    0.8247   -6.5117 H   0  0  0  0  0  0  0  0  0  0  0  0
   -6.4705   -0.5926   -8.2400 H   0  0  0  0  0  0  0  0  0  0  0  0
   -7.7879    2.0898  -11.3623 H   0  0  0  0  0  0  0  0  0  0  0  0
   -7.3874    5.3146  -10.6865 H   0  0  0  0  0  0  0  0  0  0  0  0
   -8.5101    6.4696   -9.9801 H   0  0  0  0  0  0  0  0  0  0  0  0
  -10.6843    3.9508  -12.2101 H   0  0  0  0  0  0  0  0  0  0  0  0
   -9.6821    2.6648  -11.5501 H   0  0  0  0  0  0  0  0  0  0  0  0
   -9.5742    6.8647  -12.1895 H   0  0  0  0  0  0  0  0  0  0  0  0
   -7.8369    7.1627  -12.2590 H   0  0  0  0  0  0  0  0  0  0  0  0
   -7.6650    3.5912  -12.5869 H   0  0  0  0  0  0  0  0  0  0  0  0
   -8.9182    3.4558  -13.8237 H   0  0  0  0  0  0  0  0  0  0  0  0
  -10.4023    5.0423  -10.2159 H   0  0  0  0  0  0  0  0  0  0  0  0
   -6.9204    6.7703  -16.4552 H   0  0  0  0  0  0  0  0  0  0  0  0
   -6.0493    5.2359  -16.6761 H   0  0  0  0  0  0  0  0  0  0  0  0
   -6.7576    6.0894  -18.0645 H   0  0  0  0  0  0  0  0  0  0  0  0
   -9.1389    3.2049  -17.4655 H   0  0  0  0  0  0  0  0  0  0  0  0
   -7.4035    3.0949  -17.2301 H   0  0  0  0  0  0  0  0  0  0  0  0
   -8.0432    3.9188  -18.6695 H   0  0  0  0  0  0  0  0  0  0  0  0
  -10.3538    5.3798  -17.1130 H   0  0  0  0  0  0  0  0  0  0  0  0
   -9.4653    6.8551  -16.6758 H   0  0  0  0  0  0  0  0  0  0  0  0
   -9.3503    6.1736  -18.3143 H   0  0  0  0  0  0  0  0  0  0  0  0
   -6.5893    0.2271  -11.7100 H   0  0  0  0  0  0  0  0  0  0  0  0
  1  2  1  0  0  0  0
  1  4  2  0  0  0  0
  2  6  2  0  0  0  0
  3  5  2  0  0  0  0
  3  6  1  0  0  0  0
  4  5  1  0  0  0  0
  4 17  1  0  0  0  0
  5 19  1  0  0  0  0
  6 22  1  0  0  0  0
  7 20  1  0  0  0  0
  7 21  2  0  0  0  0
  7 23  1  0  0  0  0
  8 10  1  0  0  0  0
  8 12  1  0  0  0  0
  9 11  1  0  0  0  0
  9 12  1  0  0  0  0
 10 20  1  0  0  0  0
 11 20  1  0  0  0  0
 12 19  1  0  0  0  0
 13 16  1  0  0  0  0
 14 16  1  0  0  0  0
 15 16  1  0  0  0  0
 16 23  1  0  0  0  0
 17 18  2  0  0  0  0
 18 19  1  0  0  0  0
  1 24  1  0  0  0  0
  2 25  1  0  0  0  0
  3 26  1  0  0  0  0
  8 27  1  0  0  0  0
  8 28  1  0  0  0  0
  9 29  1  0  0  0  0
  9 30  1  0  0  0  0
 10 31  1  0  0  0  0
 10 32  1  0  0  0  0
 11 33  1  0  0  0  0
 11 34  1  0  0  0  0
 12 35  1  0  0  0  0
 13 36  1  0  0  0  0
 13 37  1  0  0  0  0
 13 38  1  0  0  0  0
 14 39  1  0  0  0  0
 14 40  1  0  0  0  0
 14 41  1  0  0  0  0
 15 42  1  0  0  0  0
 15 43  1  0  0  0  0
 15 44  1  0  0  0  0
 22 45  1  0  0  0  0
M  END
> <id>
EN300-6749245

> <smiles>
CC(C)(C)OC(=O)N1CCC(CC1)N2N=NC=3C=CC(O)=CC23

> <IUPAC Name>
tert-butyl 4-(6-hydroxy-1H-1,2,3-benzotriazol-1-yl)piperidine-1-carboxylate

> <CAS>
2287335-59-3

> <URL>
https://www.enaminestore.com/catalog/EN300-6749245

> <ROCS_ShapeQuery>
_x0404_0B

> <ROCS_TanimotoCombo>
0.451 

> <ROCS_ShapeTanimoto>
0.315 

> <ROCS_ColorTanimoto>
0.136 

> <ROCS_RefTversky>
0.288 

> <ROCS_RefColorTversky>
0.141 

> <ROCS_RefTverskyCombo>
0.429 

> <ROCS_FitTversky>
1.433 

> <ROCS_FitColorTversky>
0.802 

> <ROCS_FitTverskyCombo>
2.235 

> <ROCS_ColorScore>
-10.164

> <ROCS_Overlap>
1923.482

> <ROCS_Rank>
86                  

$$$$
untitled-dbase-103016_2
  -OEChem-08222312023D

 41 44  0     0  0  0  0  0  0999 V2000
   -9.3599    8.6314  -10.5845 C   0  0  0  0  0  0  0  0  0  0  0  0
   -8.7612    2.4100   -9.0820 C   0  0  0  0  0  0  0  0  0  0  0  0
   -9.2811    3.3967   -6.9424 C   0  0  0  0  0  0  0  0  0  0  0  0
   -8.1372    4.3516  -14.0661 C   0  0  0  0  0  0  0  0  0  0  0  0
   -8.8285    3.6739   -9.6862 C   0  0  0  0  0  0  0  0  0  0  0  0
   -8.9875    2.2752   -7.7122 C   0  0  0  0  0  0  0  0  0  0  0  0
   -9.3482    4.6531   -7.5434 C   0  0  0  0  0  0  0  0  0  0  0  0
   -8.4426    5.3303  -13.1293 C   0  0  0  0  0  0  0  0  0  0  0  0
   -9.1224    4.7986   -8.9187 C   0  0  0  0  0  0  0  0  0  0  0  0
   -8.5208    6.5969  -13.6817 C   0  0  0  0  0  0  0  0  0  0  0  0
   -8.0411    5.8571  -15.7747 C   0  0  0  0  0  0  0  0  0  0  0  0
   -9.0557    7.4942  -11.3969 C   0  0  0  0  0  0  0  0  0  0  0  0
   -8.5876    3.8240  -11.1483 C   0  0  0  0  0  0  0  0  0  0  0  0
   -8.8332    7.7486  -12.8400 C   0  0  0  0  0  0  0  0  0  0  0  0
   -8.9729    6.2414  -10.8810 C   0  0  0  0  0  0  0  0  0  0  0  0
   -8.9150    0.9295   -7.0733 C   0  0  0  0  0  0  0  0  0  0  0  0
   -9.6654    5.8307   -6.6769 C   0  0  0  0  0  0  0  0  0  0  0  0
   -6.1185    5.6477  -17.7781 C   0  0  0  0  0  0  0  0  0  0  0  0
   -9.6065    9.5539   -9.9258 N   0  0  0  0  0  0  0  0  0  0  0  0
   -7.9318    4.5791  -15.3877 N   0  0  0  0  0  0  0  0  0  0  0  0
   -8.3290    6.9009  -14.9868 N   0  0  0  0  0  0  0  0  0  0  0  0
   -9.1886    6.0485   -9.5237 N   0  0  0  0  0  0  0  0  0  0  0  0
   -8.6682    5.1309  -11.7168 N   0  0  0  0  0  0  0  0  0  0  0  0
   -8.3350    2.7806  -11.7473 O   0  0  0  0  0  0  0  0  0  0  0  0
   -8.9054    8.8704  -13.3279 O   0  0  0  0  0  0  0  0  0  0  0  0
   -8.6825    5.3480  -18.2372 O   0  0  0  0  0  0  0  0  0  0  0  0
   -7.7986    7.6375  -17.6693 O   0  0  0  0  0  0  0  0  0  0  0  0
   -7.7854    6.1908  -17.4466 S   0  0  0  0  0  0  0  0  0  0  0  0
   -8.5330    1.5222   -9.6670 H   0  0  0  0  0  0  0  0  0  0  0  0
   -9.4583    3.2920   -5.8745 H   0  0  0  0  0  0  0  0  0  0  0  0
   -8.0315    3.3020  -13.8323 H   0  0  0  0  0  0  0  0  0  0  0  0
   -7.8935    0.7242   -6.7303 H   0  0  0  0  0  0  0  0  0  0  0  0
   -9.5918    0.8604   -6.2119 H   0  0  0  0  0  0  0  0  0  0  0  0
   -9.2121    0.1390   -7.7748 H   0  0  0  0  0  0  0  0  0  0  0  0
   -8.7423    6.2666   -6.2800 H   0  0  0  0  0  0  0  0  0  0  0  0
  -10.2040    6.6010   -7.2408 H   0  0  0  0  0  0  0  0  0  0  0  0
  -10.3068    5.5400   -5.8368 H   0  0  0  0  0  0  0  0  0  0  0  0
   -5.8980    5.8352  -18.8301 H   0  0  0  0  0  0  0  0  0  0  0  0
   -5.4387    6.2125  -17.1383 H   0  0  0  0  0  0  0  0  0  0  0  0
   -6.0537    4.5811  -17.5579 H   0  0  0  0  0  0  0  0  0  0  0  0
   -9.4034    6.8517   -8.9482 H   0  0  0  0  0  0  0  0  0  0  0  0
  1 12  1  0  0  0  0
  1 19  3  0  0  0  0
  2  5  2  0  0  0  0
  2  6  1  0  0  0  0
  3  6  2  0  0  0  0
  3  7  1  0  0  0  0
  4  8  2  0  0  0  0
  4 20  1  0  0  0  0
  5  9  1  0  0  0  0
  5 13  1  0  0  0  0
  6 16  1  0  0  0  0
  7  9  2  0  0  0  0
  7 17  1  0  0  0  0
  8 10  1  0  0  0  0
  8 23  1  0  0  0  0
  9 22  1  0  0  0  0
 10 14  1  0  0  0  0
 10 21  2  0  0  0  0
 11 20  2  0  0  0  0
 11 21  1  0  0  0  0
 11 28  1  0  0  0  0
 12 14  1  0  0  0  0
 12 15  2  0  0  0  0
 13 23  1  0  0  0  0
 13 24  2  0  0  0  0
 14 25  2  0  0  0  0
 15 22  1  0  0  0  0
 15 23  1  0  0  0  0
 18 28  1  0  0  0  0
 26 28  2  0  0  0  0
 27 28  2  0  0  0  0
  2 29  1  0  0  0  0
  3 30  1  0  0  0  0
  4 31  1  0  0  0  0
 16 32  1  0  0  0  0
 16 33  1  0  0  0  0
 16 34  1  0  0  0  0
 17 35  1  0  0  0  0
 17 36  1  0  0  0  0
 17 37  1  0  0  0  0
 18 38  1  0  0  0  0
 18 39  1  0  0  0  0
 18 40  1  0  0  0  0
 22 41  1  0  0  0  0
M  END
> <id>
EN300-26613145

> <smiles>
CC=1C=C(C)C=2NC3=C(C#N)C(=O)C=4N=C(N=CC4N3C(=O)C2C1)S(=O)(=O)C

> <IUPAC Name>
2-methanesulfonyl-8,10-dimethyl-6,13-dioxo-11,13-dihydro-6H-1,3,5a,11-tetraazatetraphene-12-carbonitrile

> <CAS>
328033-52-9

> <URL>
https://www.enaminestore.com/catalog/EN300-26613145

> <ROCS_ShapeQuery>
_x0404_0B

> <ROCS_TanimotoCombo>
0.451 

> <ROCS_ShapeTanimoto>
0.376 

> <ROCS_ColorTanimoto>
0.075 

> <ROCS_RefTversky>
0.338 

> <ROCS_RefColorTversky>
0.085 

> <ROCS_RefTverskyCombo>
0.423 

> <ROCS_FitTversky>
1.426 

> <ROCS_FitColorTversky>
0.404 

> <ROCS_FitTverskyCombo>
1.830 

> <ROCS_ColorScore>
-6.148

> <ROCS_Overlap>
2260.073

> <ROCS_Rank>
87                  

$$$$
untitled-dbase-103706_59
  -OEChem-08222312023D

 58 60  0     1  0  0  0  0  0999 V2000
   -8.5702    5.5626  -15.4669 B   0  0  0  0  0  0  0  0  0  0  0  0
   -8.7232    5.6374   -9.6217 C   0  0  0  0  0  0  0  0  0  0  0  0
   -8.2168    6.7755  -13.1144 C   0  0  0  0  0  0  0  0  0  0  0  0
   -9.2304    4.4432  -13.1339 C   0  0  0  0  0  0  0  0  0  0  0  0
   -8.7601    6.9647  -11.6997 C   0  0  0  0  0  0  0  0  0  0  0  0
   -9.7468    4.7022  -11.7212 C   0  0  0  0  0  0  0  0  0  0  0  0
   -9.3527    4.3474   -7.6170 C   0  0  0  0  0  0  0  0  0  0  0  0
   -9.0457    1.9284   -9.1020 C   0  0  0  0  0  0  0  0  0  0  0  0
   -9.0402    5.7540  -13.9258 C   0  0  0  0  0  0  0  0  0  0  0  0
   -8.2182    3.1571   -9.4823 C   0  0  2  0  0  0  0  0  0  0  0  0
  -10.1231    3.0593   -7.3312 C   0  0  2  0  0  0  0  0  0  0  0  0
   -8.6385    5.0015  -17.6844 C   0  0  0  0  0  0  0  0  0  0  0  0
   -7.2404    5.6102  -17.3289 C   0  0  0  0  0  0  0  0  0  0  0  0
   -6.7966    3.0718   -8.9105 C   0  0  0  0  0  0  0  0  0  0  0  0
  -10.4470    2.9351   -5.8489 C   0  0  0  0  0  0  0  0  0  0  0  0
   -9.5767    5.9447  -18.4707 C   0  0  0  0  0  0  0  0  0  0  0  0
   -8.5827    3.6621  -18.4329 C   0  0  0  0  0  0  0  0  0  0  0  0
   -6.7769    6.7385  -18.2613 C   0  0  0  0  0  0  0  0  0  0  0  0
   -6.0919    4.5816  -17.2228 C   0  0  0  0  0  0  0  0  0  0  0  0
   -8.9239    5.6874  -11.0109 N   0  0  0  0  0  0  0  0  0  0  0  0
   -8.8920    4.3851   -9.0061 N   0  0  0  0  0  0  0  0  0  0  0  0
   -8.4129    6.6435   -8.9722 O   0  0  0  0  0  0  0  0  0  0  0  0
   -9.2605    4.7679  -16.3794 O   0  0  0  0  0  0  0  0  0  0  0  0
   -7.4344    6.1753  -15.9920 O   0  0  0  0  0  0  0  0  0  0  0  0
   -9.3386    1.9215   -7.7040 O   0  0  0  0  0  0  0  0  0  0  0  0
   -8.2062    7.7524  -13.6229 H   0  0  0  0  0  0  0  0  0  0  0  0
   -7.1650    6.4514  -13.0555 H   0  0  0  0  0  0  0  0  0  0  0  0
   -8.2759    3.9063  -13.0715 H   0  0  0  0  0  0  0  0  0  0  0  0
   -9.9315    3.7803  -13.6529 H   0  0  0  0  0  0  0  0  0  0  0  0
   -8.0964    7.6242  -11.1269 H   0  0  0  0  0  0  0  0  0  0  0  0
   -9.7460    7.4472  -11.7324 H   0  0  0  0  0  0  0  0  0  0  0  0
  -10.7769    5.0889  -11.7508 H   0  0  0  0  0  0  0  0  0  0  0  0
   -9.7603    3.7419  -11.1905 H   0  0  0  0  0  0  0  0  0  0  0  0
   -9.9311    5.2351   -7.3447 H   0  0  0  0  0  0  0  0  0  0  0  0
   -8.4468    4.3891   -6.9962 H   0  0  0  0  0  0  0  0  0  0  0  0
   -9.9846    1.8969   -9.6670 H   0  0  0  0  0  0  0  0  0  0  0  0
   -8.4982    1.0090   -9.3317 H   0  0  0  0  0  0  0  0  0  0  0  0
  -10.0423    6.1902  -14.0318 H   0  0  0  0  0  0  0  0  0  0  0  0
   -8.1349    3.2092  -10.5675 H   0  0  0  0  0  0  0  0  0  0  0  0
  -11.0666    3.0422   -7.8959 H   0  0  0  0  0  0  0  0  0  0  0  0
   -6.8429    3.0182   -7.8256 H   0  0  0  0  0  0  0  0  0  0  0  0
   -6.2325    3.9536   -9.2039 H   0  0  0  0  0  0  0  0  0  0  0  0
   -6.3022    2.1830   -9.2946 H   0  0  0  0  0  0  0  0  0  0  0  0
   -9.5277    2.9493   -5.2625 H   0  0  0  0  0  0  0  0  0  0  0  0
  -10.9726    1.9990   -5.6579 H   0  0  0  0  0  0  0  0  0  0  0  0
  -11.0795    3.7656   -5.5332 H   0  0  0  0  0  0  0  0  0  0  0  0
  -10.5098    5.4305  -18.6641 H   0  0  0  0  0  0  0  0  0  0  0  0
   -9.1011    6.2137  -19.4055 H   0  0  0  0  0  0  0  0  0  0  0  0
   -9.7587    6.8327  -17.8783 H   0  0  0  0  0  0  0  0  0  0  0  0
   -9.5931    3.3193  -18.6355 H   0  0  0  0  0  0  0  0  0  0  0  0
   -8.0662    2.9281  -17.8214 H   0  0  0  0  0  0  0  0  0  0  0  0
   -8.0494    3.7941  -19.3698 H   0  0  0  0  0  0  0  0  0  0  0  0
   -5.8034    7.0963  -17.9389 H   0  0  0  0  0  0  0  0  0  0  0  0
   -7.4934    7.5539  -18.2252 H   0  0  0  0  0  0  0  0  0  0  0  0
   -6.7068    6.3613  -19.2774 H   0  0  0  0  0  0  0  0  0  0  0  0
   -5.1758    5.1027  -16.9750 H   0  0  0  0  0  0  0  0  0  0  0  0
   -5.9849    4.0758  -18.1742 H   0  0  0  0  0  0  0  0  0  0  0  0
   -6.3326    3.8656  -16.4471 H   0  0  0  0  0  0  0  0  0  0  0  0
  1  9  1  0  0  0  0
  1 23  1  0  0  0  0
  1 24  1  0  0  0  0
  2 20  1  0  0  0  0
  2 21  1  0  0  0  0
  2 22  2  0  0  0  0
  3  5  1  0  0  0  0
  3  9  1  0  0  0  0
  4  6  1  0  0  0  0
  4  9  1  0  0  0  0
  5 20  1  0  0  0  0
  6 20  1  0  0  0  0
  7 11  1  0  0  0  0
  7 21  1  0  0  0  0
  8 10  1  0  0  0  0
  8 25  1  0  0  0  0
 10 14  1  0  0  0  0
 10 21  1  0  0  0  0
 11 15  1  0  0  0  0
 11 25  1  0  0  0  0
 12 13  1  0  0  0  0
 12 16  1  0  0  0  0
 12 17  1  0  0  0  0
 12 23  1  0  0  0  0
 13 18  1  0  0  0  0
 13 19  1  0  0  0  0
 13 24  1  0  0  0  0
  3 26  1  0  0  0  0
  3 27  1  0  0  0  0
  4 28  1  0  0  0  0
  4 29  1  0  0  0  0
  5 30  1  0  0  0  0
  5 31  1  0  0  0  0
  6 32  1  0  0  0  0
  6 33  1  0  0  0  0
  7 34  1  0  0  0  0
  7 35  1  0  0  0  0
  8 36  1  0  0  0  0
  8 37  1  0  0  0  0
  9 38  1  0  0  0  0
 10 39  1  0  0  0  0
 11 40  1  0  0  0  0
 14 41  1  0  0  0  0
 14 42  1  0  0  0  0
 14 43  1  0  0  0  0
 15 44  1  0  0  0  0
 15 45  1  0  0  0  0
 15 46  1  0  0  0  0
 16 47  1  0  0  0  0
 16 48  1  0  0  0  0
 16 49  1  0  0  0  0
 17 50  1  0  0  0  0
 17 51  1  0  0  0  0
 17 52  1  0  0  0  0
 18 53  1  0  0  0  0
 18 54  1  0  0  0  0
 18 55  1  0  0  0  0
 19 56  1  0  0  0  0
 19 57  1  0  0  0  0
 19 58  1  0  0  0  0
M  END
> <id>
EN300-6735299

> <smiles>
CC1CN(C(C)CO1)C(=O)N2CCC(CC2)B3OC(C)(C)C(C)(C)O3

> <IUPAC Name>
2,5-dimethyl-4-[4-(tetramethyl-1,3,2-dioxaborolan-2-yl)piperidine-1-carbonyl]morpholine

> <URL>
https://www.enaminestore.com/catalog/EN300-6735299

> <ROCS_ShapeQuery>
_x0404_0B

> <ROCS_TanimotoCombo>
0.451 

> <ROCS_ShapeTanimoto>
0.396 

> <ROCS_ColorTanimoto>
0.055 

> <ROCS_RefTversky>
0.342 

> <ROCS_RefColorTversky>
0.060 

> <ROCS_RefTverskyCombo>
0.402 

> <ROCS_FitTversky>
1.650 

> <ROCS_FitColorTversky>
0.414 

> <ROCS_FitTverskyCombo>
2.063 

> <ROCS_ColorScore>
-4.318

> <ROCS_Overlap>
2286.240

> <ROCS_Rank>
88                  

$$$$
untitled-dbase-96237_0
  -OEChem-08222312023D

 38 41  0     0  0  0  0  0  0999 V2000
   -6.0285    6.9338  -18.0961 C   0  0  0  0  0  0  0  0  0  0  0  0
   -6.3285    5.9159  -18.9993 C   0  0  0  0  0  0  0  0  0  0  0  0
   -6.6070    6.9543  -16.8218 C   0  0  0  0  0  0  0  0  0  0  0  0
   -8.8668    5.7065   -9.2111 C   0  0  0  0  0  0  0  0  0  0  0  0
   -7.2134    4.8885  -18.6595 C   0  0  0  0  0  0  0  0  0  0  0  0
   -9.0717    4.5218   -8.4997 C   0  0  0  0  0  0  0  0  0  0  0  0
   -8.9632    4.4845  -15.5145 C   0  0  0  0  0  0  0  0  0  0  0  0
   -7.5021    5.9291  -16.4568 C   0  0  0  0  0  0  0  0  0  0  0  0
   -8.7396    5.5981  -10.5795 C   0  0  0  0  0  0  0  0  0  0  0  0
   -8.2529    5.6400  -15.2831 C   0  0  0  0  0  0  0  0  0  0  0  0
   -9.0112    3.1986  -10.5546 C   0  0  0  0  0  0  0  0  0  0  0  0
   -7.7841    4.9220  -17.3822 C   0  0  0  0  0  0  0  0  0  0  0  0
   -8.8092    4.3751  -11.2438 C   0  0  0  0  0  0  0  0  0  0  0  0
   -9.1430    3.2805   -9.1645 C   0  0  0  0  0  0  0  0  0  0  0  0
   -8.5207    6.6271  -11.5881 C   0  0  0  0  0  0  0  0  0  0  0  0
   -8.4788    5.8495  -12.8500 C   0  0  0  0  0  0  0  0  0  0  0  0
   -8.2947    6.3847  -14.0577 C   0  0  0  0  0  0  0  0  0  0  0  0
   -9.0850    1.8933  -11.2671 C   0  0  0  0  0  0  0  0  0  0  0  0
   -9.2315    2.8702  -17.3913 C   0  0  0  0  0  0  0  0  0  0  0  0
   -8.6737    4.0588  -16.7831 N   0  0  0  0  0  0  0  0  0  0  0  0
   -8.4037    7.8196  -11.4203 O   0  0  0  0  0  0  0  0  0  0  0  0
   -8.6567    4.4928  -12.6062 O   0  0  0  0  0  0  0  0  0  0  0  0
   -9.3446    2.1518   -8.4240 O   0  0  0  0  0  0  0  0  0  0  0  0
   -5.3372    7.7215  -18.3829 H   0  0  0  0  0  0  0  0  0  0  0  0
   -5.8678    5.9196  -19.9837 H   0  0  0  0  0  0  0  0  0  0  0  0
   -6.3622    7.7560  -16.1309 H   0  0  0  0  0  0  0  0  0  0  0  0
   -8.8113    6.6616   -8.7026 H   0  0  0  0  0  0  0  0  0  0  0  0
   -7.4432    4.0982  -19.3666 H   0  0  0  0  0  0  0  0  0  0  0  0
   -9.1770    4.5621   -7.4181 H   0  0  0  0  0  0  0  0  0  0  0  0
   -9.6482    3.9288  -14.8868 H   0  0  0  0  0  0  0  0  0  0  0  0
   -8.1383    7.4623  -14.1145 H   0  0  0  0  0  0  0  0  0  0  0  0
   -8.0874    1.4424  -11.3476 H   0  0  0  0  0  0  0  0  0  0  0  0
   -9.7426    1.1868  -10.7424 H   0  0  0  0  0  0  0  0  0  0  0  0
   -9.4937    2.0120  -12.2800 H   0  0  0  0  0  0  0  0  0  0  0  0
  -10.1550    3.1546  -17.9025 H   0  0  0  0  0  0  0  0  0  0  0  0
   -8.5131    2.4539  -18.1030 H   0  0  0  0  0  0  0  0  0  0  0  0
   -9.4362    2.1287  -16.6140 H   0  0  0  0  0  0  0  0  0  0  0  0
   -9.4147    2.3786   -7.4843 H   0  0  0  0  0  0  0  0  0  0  0  0
  1  2  2  0  0  0  0
  1  3  1  0  0  0  0
  2  5  1  0  0  0  0
  3  8  2  0  0  0  0
  4  6  1  0  0  0  0
  4  9  2  0  0  0  0
  5 12  2  0  0  0  0
  6 14  2  0  0  0  0
  7 10  2  0  0  0  0
  7 20  1  0  0  0  0
  8 10  1  0  0  0  0
  8 12  1  0  0  0  0
  9 13  1  0  0  0  0
  9 15  1  0  0  0  0
 10 17  1  0  0  0  0
 11 13  2  0  0  0  0
 11 14  1  0  0  0  0
 11 18  1  0  0  0  0
 12 20  1  0  0  0  0
 13 22  1  0  0  0  0
 14 23  1  0  0  0  0
 15 16  1  0  0  0  0
 15 21  2  0  0  0  0
 16 17  2  3  0  0  0
 16 22  1  0  0  0  0
 19 20  1  0  0  0  0
  1 24  1  0  0  0  0
  2 25  1  0  0  0  0
  3 26  1  0  0  0  0
  4 27  1  0  0  0  0
  5 28  1  0  0  0  0
  6 29  1  0  0  0  0
  7 30  1  0  0  0  0
 17 31  1  0  0  0  0
 18 32  1  0  0  0  0
 18 33  1  0  0  0  0
 18 34  1  0  0  0  0
 19 35  1  0  0  0  0
 19 36  1  0  0  0  0
 19 37  1  0  0  0  0
 23 38  1  0  0  0  0
M  END
> <id>
EN300-36437

> <smiles>
CC=1C=2OC(=CC3=CN(C)C=4C=CC=CC34)C(=O)C2C=CC1O

> <IUPAC Name>
6-hydroxy-7-methyl-2-[(1-methyl-1H-indol-3-yl)methylidene]-2,3-dihydro-1-benzofuran-3-one

> <CAS>
929339-51-5

> <URL>
https://www.enaminestore.com/catalog/EN300-36437

> <ROCS_ShapeQuery>
_x0404_0B

> <ROCS_TanimotoCombo>
0.450 

> <ROCS_ShapeTanimoto>
0.371 

> <ROCS_ColorTanimoto>
0.079 

> <ROCS_RefTversky>
0.327 

> <ROCS_RefColorTversky>
0.085 

> <ROCS_RefTverskyCombo>
0.412 

> <ROCS_FitTversky>
1.579 

> <ROCS_FitColorTversky>
0.537 

> <ROCS_FitTverskyCombo>
2.116 

> <ROCS_ColorScore>
-6.134

> <ROCS_Overlap>
2182.735

> <ROCS_Rank>
89                  

$$$$
untitled-dbase-168222_137
  -OEChem-08222312023D

 53 55  0     1  0  0  0  0  0999 V2000
   -9.2084    4.0575  -19.1367 C   0  0  0  0  0  0  0  0  0  0  0  0
  -10.2885    3.9794  -18.2575 C   0  0  0  0  0  0  0  0  0  0  0  0
   -7.9125    4.1937  -18.6390 C   0  0  0  0  0  0  0  0  0  0  0  0
  -10.0727    4.0374  -16.8807 C   0  0  0  0  0  0  0  0  0  0  0  0
   -7.6967    4.2518  -17.2621 C   0  0  0  0  0  0  0  0  0  0  0  0
   -8.7767    4.1737  -16.3830 C   0  0  0  0  0  0  0  0  0  0  0  0
   -7.3834    2.6093  -11.1017 C   0  0  0  0  0  0  0  0  0  0  0  0
   -6.3912    2.0246  -11.7930 C   0  0  0  0  0  0  0  0  0  0  0  0
   -8.5798    5.6628  -14.3252 C   0  0  0  0  0  0  0  0  0  0  0  0
   -8.9930    5.0040   -9.8383 C   0  0  0  0  0  0  0  0  0  0  0  0
   -7.2301    2.9868   -9.6548 C   0  0  0  0  0  0  0  0  0  0  0  0
   -6.4042    1.6716  -13.2557 C   0  0  0  0  0  0  0  0  0  0  0  0
   -9.3161    6.9218  -12.2908 C   0  0  0  0  0  0  0  0  0  0  0  0
   -8.4516    3.8193   -7.5489 C   0  0  0  0  0  0  0  0  0  0  0  0
   -9.6491    2.6435   -8.7875 C   0  0  0  0  0  0  0  0  0  0  0  0
   -7.2303    3.6147  -14.3540 C   0  0  0  0  0  0  0  0  0  0  0  0
   -8.5404    4.2374  -14.8796 C   0  0  2  0  0  0  0  0  0  0  0  0
   -8.2032    6.9718  -11.2315 C   0  0  1  0  0  0  0  0  0  0  0  0
   -8.5076    3.6713   -9.1064 C   0  0  0  0  0  0  0  0  0  0  0  0
   -8.4270    8.1252  -10.2563 C   0  0  0  0  0  0  0  0  0  0  0  0
   -9.2399    5.7240  -13.1061 N   0  0  0  0  0  0  0  0  0  0  0  0
   -8.0015    5.7079  -10.5151 N   0  0  0  0  0  0  0  0  0  0  0  0
   -9.1172    2.5129   -7.4206 N   0  0  0  0  0  0  0  0  0  0  0  0
   -8.0343    6.6105  -14.8858 O   0  0  0  0  0  0  0  0  0  0  0  0
  -10.1645    5.4007   -9.7882 O   0  0  0  0  0  0  0  0  0  0  0  0
   -7.4884    2.2579  -13.9746 O   0  0  0  0  0  0  0  0  0  0  0  0
   -9.3765    4.0109  -20.2087 H   0  0  0  0  0  0  0  0  0  0  0  0
  -11.2975    3.8722  -18.6448 H   0  0  0  0  0  0  0  0  0  0  0  0
   -7.0712    4.2535  -19.3231 H   0  0  0  0  0  0  0  0  0  0  0  0
  -10.9203    3.9760  -16.2032 H   0  0  0  0  0  0  0  0  0  0  0  0
   -6.6835    4.3581  -16.8834 H   0  0  0  0  0  0  0  0  0  0  0  0
   -8.3341    2.7983  -11.5738 H   0  0  0  0  0  0  0  0  0  0  0  0
   -5.4765    1.7334  -11.2451 H   0  0  0  0  0  0  0  0  0  0  0  0
   -6.9917    2.1030   -9.0387 H   0  0  0  0  0  0  0  0  0  0  0  0
   -6.3587    3.6565   -9.5596 H   0  0  0  0  0  0  0  0  0  0  0  0
   -5.4346    1.9039  -13.7579 H   0  0  0  0  0  0  0  0  0  0  0  0
   -6.5141    0.5688  -13.3416 H   0  0  0  0  0  0  0  0  0  0  0  0
  -10.2990    6.9370  -11.8222 H   0  0  0  0  0  0  0  0  0  0  0  0
   -9.2344    7.7813  -12.9554 H   0  0  0  0  0  0  0  0  0  0  0  0
   -7.4391    3.8398   -7.1182 H   0  0  0  0  0  0  0  0  0  0  0  0
   -9.0148    4.6577   -7.1196 H   0  0  0  0  0  0  0  0  0  0  0  0
  -10.6749    3.0263   -8.8363 H   0  0  0  0  0  0  0  0  0  0  0  0
   -9.6072    1.7107   -9.3672 H   0  0  0  0  0  0  0  0  0  0  0  0
   -6.4618    3.5949  -15.1356 H   0  0  0  0  0  0  0  0  0  0  0  0
   -6.8439    4.1897  -13.5050 H   0  0  0  0  0  0  0  0  0  0  0  0
   -9.4009    3.7229  -14.3757 H   0  0  0  0  0  0  0  0  0  0  0  0
   -7.2354    7.2008  -11.7648 H   0  0  0  0  0  0  0  0  0  0  0  0
   -9.3517    7.9668   -9.7041 H   0  0  0  0  0  0  0  0  0  0  0  0
   -8.4946    9.0633  -10.8043 H   0  0  0  0  0  0  0  0  0  0  0  0
   -7.5968    8.1806   -9.5543 H   0  0  0  0  0  0  0  0  0  0  0  0
   -9.7520    4.9029  -12.7794 H   0  0  0  0  0  0  0  0  0  0  0  0
   -7.0561    5.3131  -10.5134 H   0  0  0  0  0  0  0  0  0  0  0  0
   -8.4887    1.7206   -7.2766 H   0  0  0  0  0  0  0  0  0  0  0  0
  1  2  2  0  0  0  0
  1  3  1  0  0  0  0
  2  4  1  0  0  0  0
  3  5  2  0  0  0  0
  4  6  2  0  0  0  0
  5  6  1  0  0  0  0
  6 17  1  0  0  0  0
  7  8  2  0  0  0  0
  7 11  1  0  0  0  0
  8 12  1  0  0  0  0
  9 17  1  0  0  0  0
  9 21  1  0  0  0  0
  9 24  2  0  0  0  0
 10 19  1  0  0  0  0
 10 22  1  0  0  0  0
 10 25  2  0  0  0  0
 11 19  1  0  0  0  0
 12 26  1  0  0  0  0
 13 18  1  0  0  0  0
 13 21  1  0  0  0  0
 14 19  1  0  0  0  0
 14 23  1  0  0  0  0
 15 19  1  0  0  0  0
 15 23  1  0  0  0  0
 16 17  1  0  0  0  0
 16 26  1  0  0  0  0
 18 20  1  6  0  0  0
 18 22  1  0  0  0  0
  1 27  1  0  0  0  0
  2 28  1  0  0  0  0
  3 29  1  0  0  0  0
  4 30  1  0  0  0  0
  5 31  1  0  0  0  0
  7 32  1  0  0  0  0
  8 33  1  0  0  0  0
 11 34  1  0  0  0  0
 11 35  1  0  0  0  0
 12 36  1  0  0  0  0
 12 37  1  0  0  0  0
 13 38  1  0  0  0  0
 13 39  1  0  0  0  0
 14 40  1  0  0  0  0
 14 41  1  0  0  0  0
 15 42  1  0  0  0  0
 15 43  1  0  0  0  0
 16 44  1  0  0  0  0
 16 45  1  0  0  0  0
 17 46  1  0  0  0  0
 18 47  1  0  0  0  0
 20 48  1  0  0  0  0
 20 49  1  0  0  0  0
 20 50  1  0  0  0  0
 21 51  1  0  0  0  0
 22 52  1  0  0  0  0
 23 53  1  0  0  0  0
M  END
> <id>
EN300-6733233

> <smiles>
C[C@@H]1CNC(=O)C(COC/C=C/CC2(CNC2)C(=O)N1)C=3C=CC=CC3.OC(=O)C(F)(F)F

> <MDLNUMBER>
MFCD31746226

> <IUPAC Name>
(7R,15E)-7-methyl-11-phenyl-13-oxa-2,6,9-triazaspiro[3.13]heptadec-15-ene-5,10-dione; trifluoroacetic acid

> <CAS>
2287255-39-2

> <URL>
https://www.enaminestore.com/catalog/EN300-6733233

> <Saltdate>
OC(=O)C(F)(F)F

> <ROCS_ShapeQuery>
_x0404_0B

> <ROCS_TanimotoCombo>
0.450 

> <ROCS_ShapeTanimoto>
0.339 

> <ROCS_ColorTanimoto>
0.112 

> <ROCS_RefTversky>
0.307 

> <ROCS_RefColorTversky>
0.117 

> <ROCS_RefTverskyCombo>
0.425 

> <ROCS_FitTversky>
1.438 

> <ROCS_FitColorTversky>
0.689 

> <ROCS_FitTverskyCombo>
2.127 

> <ROCS_ColorScore>
-8.490

> <ROCS_Overlap>
2051.960

> <ROCS_Rank>
90                  

$$$$
untitled-dbase-29707_6031
  -OEChem-08222312023D

 59 60  0     1  0  0  0  0  0999 V2000
   -9.9951    7.9666  -14.0171 C   0  0  0  0  0  0  0  0  0  0  0  0
   -8.6731    4.9289   -8.6738 C   0  0  0  0  0  0  0  0  0  0  0  0
   -7.6410    5.1561  -16.3702 C   0  0  0  0  0  0  0  0  0  0  0  0
   -8.3401    6.9423  -11.7828 C   0  0  0  0  0  0  0  0  0  0  0  0
   -9.0502    4.5679  -12.3940 C   0  0  0  0  0  0  0  0  0  0  0  0
   -9.0363    6.5873  -10.4751 C   0  0  0  0  0  0  0  0  0  0  0  0
   -8.3382    4.2635  -11.0793 C   0  0  0  0  0  0  0  0  0  0  0  0
   -9.7561    5.7791  -15.1334 C   0  0  0  0  0  0  0  0  0  0  0  0
   -7.6315    5.9341  -14.0002 C   0  0  0  0  0  0  0  0  0  0  0  0
   -9.9576    6.4815  -13.7896 C   0  0  1  0  0  0  0  0  0  0  0  0
   -8.7471    5.9992  -12.9366 C   0  0  0  0  0  0  0  0  0  0  0  0
  -10.6806    3.3465   -8.0855 C   0  0  0  0  0  0  0  0  0  0  0  0
   -9.1136    1.3874   -8.2097 C   0  0  0  0  0  0  0  0  0  0  0  0
   -9.0203    2.9404   -6.2380 C   0  0  0  0  0  0  0  0  0  0  0  0
   -7.1548    3.1347  -18.3312 C   0  0  0  0  0  0  0  0  0  0  0  0
   -9.0073    4.2163  -19.6380 C   0  0  0  0  0  0  0  0  0  0  0  0
   -6.9202    5.5136  -19.1190 C   0  0  0  0  0  0  0  0  0  0  0  0
   -9.2850    2.8300   -7.7389 C   0  0  0  0  0  0  0  0  0  0  0  0
   -7.8898    4.4424  -18.6219 C   0  0  0  0  0  0  0  0  0  0  0  0
   -8.6867    5.2357  -10.0379 N   0  0  0  0  0  0  0  0  0  0  0  0
   -8.3124    5.5939  -15.2413 N   0  0  0  0  0  0  0  0  0  0  0  0
   -9.0216    8.7048  -13.9946 O   0  0  0  0  0  0  0  0  0  0  0  0
   -8.9407    5.7320   -7.7819 O   0  0  0  0  0  0  0  0  0  0  0  0
   -6.4227    5.0083  -16.4353 O   0  0  0  0  0  0  0  0  0  0  0  0
  -11.2638    8.3832  -14.2502 O   0  0  0  0  0  0  0  0  0  0  0  0
   -8.3185    3.6278   -8.4322 O   0  0  0  0  0  0  0  0  0  0  0  0
   -8.4961    4.9035  -17.4094 O   0  0  0  0  0  0  0  0  0  0  0  0
   -8.6073    7.9746  -12.0302 H   0  0  0  0  0  0  0  0  0  0  0  0
   -7.2576    6.9262  -11.6256 H   0  0  0  0  0  0  0  0  0  0  0  0
   -8.7653    3.8165  -13.1418 H   0  0  0  0  0  0  0  0  0  0  0  0
  -10.1331    4.4591  -12.2464 H   0  0  0  0  0  0  0  0  0  0  0  0
   -8.7438    7.2712   -9.6705 H   0  0  0  0  0  0  0  0  0  0  0  0
  -10.1178    6.6957  -10.6014 H   0  0  0  0  0  0  0  0  0  0  0  0
   -8.5866    3.2474  -10.7521 H   0  0  0  0  0  0  0  0  0  0  0  0
   -7.2489    4.3018  -11.2061 H   0  0  0  0  0  0  0  0  0  0  0  0
  -10.2640    4.8094  -15.1767 H   0  0  0  0  0  0  0  0  0  0  0  0
  -10.0906    6.3807  -15.9868 H   0  0  0  0  0  0  0  0  0  0  0  0
   -7.0580    6.8572  -14.1269 H   0  0  0  0  0  0  0  0  0  0  0  0
   -6.9209    5.1225  -13.7983 H   0  0  0  0  0  0  0  0  0  0  0  0
  -10.8888    6.1885  -13.3548 H   0  0  0  0  0  0  0  0  0  0  0  0
  -10.8076    4.3818   -7.7492 H   0  0  0  0  0  0  0  0  0  0  0  0
  -10.8699    3.3053   -9.1631 H   0  0  0  0  0  0  0  0  0  0  0  0
  -11.4528    2.7590   -7.5758 H   0  0  0  0  0  0  0  0  0  0  0  0
   -8.1136    1.0126   -7.9630 H   0  0  0  0  0  0  0  0  0  0  0  0
   -9.2089    1.3185   -9.2994 H   0  0  0  0  0  0  0  0  0  0  0  0
   -9.8549    0.7229   -7.7541 H   0  0  0  0  0  0  0  0  0  0  0  0
   -8.0193    2.5700   -5.9891 H   0  0  0  0  0  0  0  0  0  0  0  0
   -9.1027    3.9749   -5.8890 H   0  0  0  0  0  0  0  0  0  0  0  0
   -9.7278    2.3244   -5.6713 H   0  0  0  0  0  0  0  0  0  0  0  0
   -6.3519    3.2928  -17.6023 H   0  0  0  0  0  0  0  0  0  0  0  0
   -7.8330    2.3689  -17.9409 H   0  0  0  0  0  0  0  0  0  0  0  0
   -6.6772    2.7448  -19.2374 H   0  0  0  0  0  0  0  0  0  0  0  0
   -9.5374    5.1520  -19.8495 H   0  0  0  0  0  0  0  0  0  0  0  0
   -9.7564    3.5191  -19.2456 H   0  0  0  0  0  0  0  0  0  0  0  0
   -8.6211    3.8158  -20.5809 H   0  0  0  0  0  0  0  0  0  0  0  0
   -7.4472    6.4517  -19.3276 H   0  0  0  0  0  0  0  0  0  0  0  0
   -6.1321    5.7155  -18.3863 H   0  0  0  0  0  0  0  0  0  0  0  0
   -6.4502    5.2071  -20.0605 H   0  0  0  0  0  0  0  0  0  0  0  0
  -11.9036    7.6400  -14.2268 H   0  0  0  0  0  0  0  0  0  0  0  0
  1 10  1  0  0  0  0
  1 22  2  0  0  0  0
  1 25  1  0  0  0  0
  2 20  1  0  0  0  0
  2 23  2  0  0  0  0
  2 26  1  0  0  0  0
  3 21  1  0  0  0  0
  3 24  2  0  0  0  0
  3 27  1  0  0  0  0
  4  6  1  0  0  0  0
  4 11  1  0  0  0  0
  5  7  1  0  0  0  0
  5 11  1  0  0  0  0
  6 20  1  0  0  0  0
  7 20  1  0  0  0  0
  8 10  1  0  0  0  0
  8 21  1  0  0  0  0
  9 11  1  0  0  0  0
  9 21  1  0  0  0  0
 10 11  1  0  0  0  0
 12 18  1  0  0  0  0
 13 18  1  0  0  0  0
 14 18  1  0  0  0  0
 15 19  1  0  0  0  0
 16 19  1  0  0  0  0
 17 19  1  0  0  0  0
 18 26  1  0  0  0  0
 19 27  1  0  0  0  0
  4 28  1  0  0  0  0
  4 29  1  0  0  0  0
  5 30  1  0  0  0  0
  5 31  1  0  0  0  0
  6 32  1  0  0  0  0
  6 33  1  0  0  0  0
  7 34  1  0  0  0  0
  7 35  1  0  0  0  0
  8 36  1  0  0  0  0
  8 37  1  0  0  0  0
  9 38  1  0  0  0  0
  9 39  1  0  0  0  0
 10 40  1  0  0  0  0
 12 41  1  0  0  0  0
 12 42  1  0  0  0  0
 12 43  1  0  0  0  0
 13 44  1  0  0  0  0
 13 45  1  0  0  0  0
 13 46  1  0  0  0  0
 14 47  1  0  0  0  0
 14 48  1  0  0  0  0
 14 49  1  0  0  0  0
 15 50  1  0  0  0  0
 15 51  1  0  0  0  0
 15 52  1  0  0  0  0
 16 53  1  0  0  0  0
 16 54  1  0  0  0  0
 16 55  1  0  0  0  0
 17 56  1  0  0  0  0
 17 57  1  0  0  0  0
 17 58  1  0  0  0  0
 25 59  1  0  0  0  0
M  END
> <id>
EN300-1455685

> <smiles>
CC(C)(C)OC(=O)N1CC(C(=O)O)C2(C1)CCN(CC2)C(=O)OC(C)(C)C

> <IUPAC Name>
2,8-bis[(tert-butoxy)carbonyl]-2,8-diazaspiro[4.5]decane-4-carboxylic acid

> <CAS>
2172112-92-2

> <URL>
https://www.enaminestore.com/catalog/EN300-1455685

> <ROCS_ShapeQuery>
_x0404_0B

> <ROCS_TanimotoCombo>
0.450 

> <ROCS_ShapeTanimoto>
0.399 

> <ROCS_ColorTanimoto>
0.051 

> <ROCS_RefTversky>
0.349 

> <ROCS_RefColorTversky>
0.057 

> <ROCS_RefTverskyCombo>
0.405 

> <ROCS_FitTversky>
1.572 

> <ROCS_FitColorTversky>
0.331 

> <ROCS_FitTverskyCombo>
1.903 

> <ROCS_ColorScore>
-4.084

> <ROCS_Overlap>
2331.257

> <ROCS_Rank>
91                  

$$$$
untitled-dbase-103715_1394
  -OEChem-08222312023D

 56 58  0     1  0  0  0  0  0999 V2000
   -8.7736    5.4934  -16.1272 B   0  0  0  0  0  0  0  0  0  0  0  0
   -8.8872    5.6778  -10.3377 C   0  0  0  0  0  0  0  0  0  0  0  0
   -7.9107    6.6165  -13.8630 C   0  0  0  0  0  0  0  0  0  0  0  0
  -10.1193    5.3114  -13.8036 C   0  0  0  0  0  0  0  0  0  0  0  0
   -8.2659    6.8606  -12.4013 C   0  0  0  0  0  0  0  0  0  0  0  0
   -9.4337    4.6600  -12.6011 C   0  0  0  0  0  0  0  0  0  0  0  0
   -9.2288    3.1675  -10.2315 C   0  0  0  0  0  0  0  0  0  0  0  0
  -10.0137    4.6743   -8.3800 C   0  0  0  0  0  0  0  0  0  0  0  0
   -8.4742    2.2462   -9.2791 C   0  0  0  0  0  0  0  0  0  0  0  0
   -9.0059    2.7393   -7.0040 C   0  0  0  0  0  0  0  0  0  0  0  0
   -9.1300    6.1239  -14.6723 C   0  0  0  0  0  0  0  0  0  0  0  0
   -9.1081    4.2518   -7.2225 C   0  0  1  0  0  0  0  0  0  0  0  0
   -7.5668    4.8980  -17.9781 C   0  0  0  0  0  0  0  0  0  0  0  0
   -9.0520    4.4269  -18.1328 C   0  0  0  0  0  0  0  0  0  0  0  0
   -6.5592    3.7732  -17.6500 C   0  0  0  0  0  0  0  0  0  0  0  0
   -7.0172    5.6879  -19.1745 C   0  0  0  0  0  0  0  0  0  0  0  0
   -9.2187    2.9519  -18.5250 C   0  0  0  0  0  0  0  0  0  0  0  0
   -9.9047    5.2744  -19.1038 C   0  0  0  0  0  0  0  0  0  0  0  0
   -8.7793    5.6589  -11.7396 N   0  0  0  0  0  0  0  0  0  0  0  0
   -9.4048    4.5303   -9.7096 N   0  0  0  0  0  0  0  0  0  0  0  0
   -8.5586    6.6783   -9.6862 O   0  0  0  0  0  0  0  0  0  0  0  0
   -7.6025    5.7931  -16.8197 O   0  0  0  0  0  0  0  0  0  0  0  0
   -9.6181    4.6089  -16.7946 O   0  0  0  0  0  0  0  0  0  0  0  0
   -9.2817    1.9444   -8.1520 O   0  0  0  0  0  0  0  0  0  0  0  0
   -7.8077    4.8110   -7.4054 O   0  0  0  0  0  0  0  0  0  0  0  0
   -7.5183    7.5474  -14.2930 H   0  0  0  0  0  0  0  0  0  0  0  0
   -7.0982    5.8801  -13.9217 H   0  0  0  0  0  0  0  0  0  0  0  0
  -10.5885    4.5270  -14.4111 H   0  0  0  0  0  0  0  0  0  0  0  0
  -10.9306    5.9550  -13.4426 H   0  0  0  0  0  0  0  0  0  0  0  0
   -7.4253    7.3009  -11.8546 H   0  0  0  0  0  0  0  0  0  0  0  0
   -9.0663    7.6152  -12.3376 H   0  0  0  0  0  0  0  0  0  0  0  0
  -10.1601    4.1192  -11.9824 H   0  0  0  0  0  0  0  0  0  0  0  0
   -8.6922    3.9314  -12.9478 H   0  0  0  0  0  0  0  0  0  0  0  0
   -8.6618    3.2419  -11.1745 H   0  0  0  0  0  0  0  0  0  0  0  0
  -10.2225    2.7653  -10.4891 H   0  0  0  0  0  0  0  0  0  0  0  0
  -10.9084    4.0534   -8.3564 H   0  0  0  0  0  0  0  0  0  0  0  0
  -10.3207    5.7079   -8.2353 H   0  0  0  0  0  0  0  0  0  0  0  0
   -8.2872    1.3059   -9.7869 H   0  0  0  0  0  0  0  0  0  0  0  0
   -7.5224    2.6570   -8.9655 H   0  0  0  0  0  0  0  0  0  0  0  0
   -8.0245    2.4528   -6.5568 H   0  0  0  0  0  0  0  0  0  0  0  0
   -9.7466    2.4317   -6.2343 H   0  0  0  0  0  0  0  0  0  0  0  0
   -9.6817    7.0498  -14.9555 H   0  0  0  0  0  0  0  0  0  0  0  0
   -9.5163    4.7120   -6.2799 H   0  0  0  0  0  0  0  0  0  0  0  0
   -5.5690    4.2028  -17.5647 H   0  0  0  0  0  0  0  0  0  0  0  0
   -6.5782    3.0413  -18.4478 H   0  0  0  0  0  0  0  0  0  0  0  0
   -6.8438    3.3089  -16.7141 H   0  0  0  0  0  0  0  0  0  0  0  0
   -5.9872    5.9708  -18.9779 H   0  0  0  0  0  0  0  0  0  0  0  0
   -7.6168    6.5811  -19.3236 H   0  0  0  0  0  0  0  0  0  0  0  0
   -7.0598    5.0690  -20.0660 H   0  0  0  0  0  0  0  0  0  0  0  0
  -10.2760    2.7178  -18.6084 H   0  0  0  0  0  0  0  0  0  0  0  0
   -8.7667    2.3226  -17.7640 H   0  0  0  0  0  0  0  0  0  0  0  0
   -8.7313    2.7747  -19.4793 H   0  0  0  0  0  0  0  0  0  0  0  0
  -10.9072    4.8669  -19.1376 H   0  0  0  0  0  0  0  0  0  0  0  0
   -9.4561    5.2375  -20.0885 H   0  0  0  0  0  0  0  0  0  0  0  0
   -9.9317    6.2963  -18.7466 H   0  0  0  0  0  0  0  0  0  0  0  0
   -7.9240    5.7727   -7.4216 H   0  0  0  0  0  0  0  0  0  0  0  0
  1 11  1  0  0  0  0
  1 22  1  0  0  0  0
  1 23  1  0  0  0  0
  2 19  1  0  0  0  0
  2 20  1  0  0  0  0
  2 21  2  0  0  0  0
  3  5  1  0  0  0  0
  3 11  1  0  0  0  0
  4  6  1  0  0  0  0
  4 11  1  0  0  0  0
  5 19  1  0  0  0  0
  6 19  1  0  0  0  0
  7  9  1  0  0  0  0
  7 20  1  0  0  0  0
  8 12  1  0  0  0  0
  8 20  1  0  0  0  0
  9 24  1  0  0  0  0
 10 12  1  0  0  0  0
 10 24  1  0  0  0  0
 12 25  1  0  0  0  0
 13 14  1  0  0  0  0
 13 15  1  0  0  0  0
 13 16  1  0  0  0  0
 13 22  1  0  0  0  0
 14 17  1  0  0  0  0
 14 18  1  0  0  0  0
 14 23  1  0  0  0  0
  3 26  1  0  0  0  0
  3 27  1  0  0  0  0
  4 28  1  0  0  0  0
  4 29  1  0  0  0  0
  5 30  1  0  0  0  0
  5 31  1  0  0  0  0
  6 32  1  0  0  0  0
  6 33  1  0  0  0  0
  7 34  1  0  0  0  0
  7 35  1  0  0  0  0
  8 36  1  0  0  0  0
  8 37  1  0  0  0  0
  9 38  1  0  0  0  0
  9 39  1  0  0  0  0
 10 40  1  0  0  0  0
 10 41  1  0  0  0  0
 11 42  1  0  0  0  0
 12 43  1  0  0  0  0
 15 44  1  0  0  0  0
 15 45  1  0  0  0  0
 15 46  1  0  0  0  0
 16 47  1  0  0  0  0
 16 48  1  0  0  0  0
 16 49  1  0  0  0  0
 17 50  1  0  0  0  0
 17 51  1  0  0  0  0
 17 52  1  0  0  0  0
 18 53  1  0  0  0  0
 18 54  1  0  0  0  0
 18 55  1  0  0  0  0
 25 56  1  0  0  0  0
M  END
> <id>
EN300-6735592

> <smiles>
CC1(C)OB(OC1(C)C)C2CCN(CC2)C(=O)N3CCOCC(O)C3

> <MDLNUMBER>
MFCD32858682

> <IUPAC Name>
4-[4-(tetramethyl-1,3,2-dioxaborolan-2-yl)piperidine-1-carbonyl]-1,4-oxazepan-6-ol

> <Purity>
95

> <URL>
https://www.enaminestore.com/catalog/EN300-6735592

> <ROCS_ShapeQuery>
_x0404_0B

> <ROCS_TanimotoCombo>
0.450 

> <ROCS_ShapeTanimoto>
0.396 

> <ROCS_ColorTanimoto>
0.054 

> <ROCS_RefTversky>
0.343 

> <ROCS_RefColorTversky>
0.060 

> <ROCS_RefTverskyCombo>
0.402 

> <ROCS_FitTversky>
1.651 

> <ROCS_FitColorTversky>
0.349 

> <ROCS_FitTverskyCombo>
2.000 

> <ROCS_ColorScore>
-4.304

> <ROCS_Overlap>
2290.246

> <ROCS_Rank>
92                  

$$$$
untitled-dbase-32749_8
  -OEChem-08222312023D

 57 61  0     1  0  0  0  0  0999 V2000
   -8.8780    3.7448   -6.9384 C   0  0  0  0  0  0  0  0  0  0  0  0
   -8.7088    4.6222   -8.0037 C   0  0  0  0  0  0  0  0  0  0  0  0
   -9.2411    2.4388   -7.2253 C   0  0  0  0  0  0  0  0  0  0  0  0
   -9.2666    2.8478   -9.4859 C   0  0  0  0  0  0  0  0  0  0  0  0
   -8.9049    4.1731   -9.3049 C   0  0  0  0  0  0  0  0  0  0  0  0
   -8.9565    6.4097  -10.4189 C   0  0  0  0  0  0  0  0  0  0  0  0
   -9.0979    6.9395  -16.3343 C   0  0  0  0  0  0  0  0  0  0  0  0
   -8.7339    5.0782  -10.4551 C   0  0  0  0  0  0  0  0  0  0  0  0
   -8.7257    5.8356  -17.0060 C   0  0  0  0  0  0  0  0  0  0  0  0
   -8.7724    7.0563  -11.7631 C   0  0  0  0  0  0  0  0  0  0  0  0
   -9.1802    7.0430  -14.8446 C   0  0  0  0  0  0  0  0  0  0  0  0
   -8.6556    5.8591  -18.5155 C   0  0  0  0  0  0  0  0  0  0  0  0
   -8.3910    3.2973  -13.9740 C   0  0  0  0  0  0  0  0  0  0  0  0
   -8.9481    3.3589  -18.5547 C   0  0  0  0  0  0  0  0  0  0  0  0
   -8.7433    3.3734  -12.4752 C   0  0  0  0  0  0  0  0  0  0  0  0
   -9.0897    3.3415  -17.0334 C   0  0  0  0  0  0  0  0  0  0  0  0
   -8.9235    5.8226  -12.6452 C   0  0  1  0  0  0  0  0  0  0  0  0
   -8.4885    5.8843  -14.1114 C   0  0  1  0  0  0  0  0  0  0  0  0
   -8.8399    4.5336  -14.8005 C   0  0  1  0  0  0  0  0  0  0  0  0
   -9.4125    4.6889  -19.1376 C   0  0  2  0  0  0  0  0  0  0  0  0
   -8.2412    4.6827  -11.8436 C   0  0  1  0  0  0  0  0  0  0  0  0
   -8.3667    4.5155  -16.3084 C   0  0  2  0  0  0  0  0  0  0  0  0
   -6.6927    4.7542  -11.8672 C   0  0  0  0  0  0  0  0  0  0  0  0
   -6.8354    4.3184  -16.4158 C   0  0  0  0  0  0  0  0  0  0  0  0
   -9.4405    1.9660   -8.4760 N   0  0  0  0  0  0  0  0  0  0  0  0
   -9.1867    4.6681  -20.5434 O   0  0  0  0  0  0  0  0  0  0  0  0
   -8.7303    4.0727   -5.9160 H   0  0  0  0  0  0  0  0  0  0  0  0
   -8.4242    5.6523   -7.8047 H   0  0  0  0  0  0  0  0  0  0  0  0
   -9.3862    1.7160   -6.4292 H   0  0  0  0  0  0  0  0  0  0  0  0
   -9.4345    2.4351  -10.4766 H   0  0  0  0  0  0  0  0  0  0  0  0
   -9.2557    6.9598   -9.5372 H   0  0  0  0  0  0  0  0  0  0  0  0
   -9.3610    7.8392  -16.8855 H   0  0  0  0  0  0  0  0  0  0  0  0
   -9.5590    7.7897  -11.9631 H   0  0  0  0  0  0  0  0  0  0  0  0
   -7.7937    7.5380  -11.8454 H   0  0  0  0  0  0  0  0  0  0  0  0
   -8.7214    7.9888  -14.5318 H   0  0  0  0  0  0  0  0  0  0  0  0
  -10.2405    7.0985  -14.5685 H   0  0  0  0  0  0  0  0  0  0  0  0
   -9.0565    6.7954  -18.9248 H   0  0  0  0  0  0  0  0  0  0  0  0
   -7.6061    5.8392  -18.8358 H   0  0  0  0  0  0  0  0  0  0  0  0
   -7.3116    3.1467  -14.0628 H   0  0  0  0  0  0  0  0  0  0  0  0
   -8.8576    2.3937  -14.3828 H   0  0  0  0  0  0  0  0  0  0  0  0
   -7.9110    3.1574  -18.8495 H   0  0  0  0  0  0  0  0  0  0  0  0
   -9.5367    2.5417  -18.9898 H   0  0  0  0  0  0  0  0  0  0  0  0
   -9.8317    3.2862  -12.3594 H   0  0  0  0  0  0  0  0  0  0  0  0
   -8.3107    2.5083  -11.9575 H   0  0  0  0  0  0  0  0  0  0  0  0
  -10.1620    3.3678  -16.7957 H   0  0  0  0  0  0  0  0  0  0  0  0
   -8.7165    2.3782  -16.6657 H   0  0  0  0  0  0  0  0  0  0  0  0
  -10.0104    5.6145  -12.6704 H   0  0  0  0  0  0  0  0  0  0  0  0
   -7.4068    6.0541  -14.1592 H   0  0  0  0  0  0  0  0  0  0  0  0
   -9.9413    4.4835  -14.8137 H   0  0  0  0  0  0  0  0  0  0  0  0
  -10.4904    4.8096  -18.9736 H   0  0  0  0  0  0  0  0  0  0  0  0
   -6.3438    4.4734  -12.8528 H   0  0  0  0  0  0  0  0  0  0  0  0
   -6.2991    4.0708  -11.1256 H   0  0  0  0  0  0  0  0  0  0  0  0
   -6.3852    5.7669  -11.6391 H   0  0  0  0  0  0  0  0  0  0  0  0
   -6.5679    3.3905  -15.9276 H   0  0  0  0  0  0  0  0  0  0  0  0
   -6.3417    5.1501  -15.9305 H   0  0  0  0  0  0  0  0  0  0  0  0
   -6.5609    4.2814  -17.4619 H   0  0  0  0  0  0  0  0  0  0  0  0
   -9.6844    3.9124  -20.8931 H   0  0  0  0  0  0  0  0  0  0  0  0
  1  2  1  0  0  0  0
  1  3  2  0  0  0  0
  2  5  2  0  0  0  0
  3 25  1  0  0  0  0
  4  5  1  0  0  0  0
  4 25  2  0  0  0  0
  5  8  1  0  0  0  0
  6  8  2  0  0  0  0
  6 10  1  0  0  0  0
  7  9  2  0  0  0  0
  7 11  1  0  0  0  0
  8 21  1  0  0  0  0
  9 12  1  0  0  0  0
  9 22  1  0  0  0  0
 10 17  1  1  0  0  0
 11 18  1  6  0  0  0
 12 20  1  0  0  0  0
 13 15  1  0  0  0  0
 13 19  1  1  0  0  0
 14 16  1  0  0  0  0
 14 20  1  0  0  0  0
 15 21  1  0  0  0  0
 16 22  1  0  0  0  0
 17 18  1  0  0  0  0
 17 21  1  0  0  0  0
 18 19  1  0  0  0  0
 19 22  1  0  0  0  0
 20 26  1  1  0  0  0
 21 23  1  1  0  0  0
 22 24  1  1  0  0  0
  1 27  1  0  0  0  0
  2 28  1  0  0  0  0
  3 29  1  0  0  0  0
  4 30  1  0  0  0  0
  6 31  1  0  0  0  0
  7 32  1  0  0  0  0
 10 33  1  0  0  0  0
 10 34  1  0  0  0  0
 11 35  1  0  0  0  0
 11 36  1  0  0  0  0
 12 37  1  0  0  0  0
 12 38  1  0  0  0  0
 13 39  1  0  0  0  0
 13 40  1  0  0  0  0
 14 41  1  0  0  0  0
 14 42  1  0  0  0  0
 15 43  1  0  0  0  0
 15 44  1  0  0  0  0
 16 45  1  0  0  0  0
 16 46  1  0  0  0  0
 17 47  1  0  0  0  0
 18 48  1  0  0  0  0
 19 49  1  0  0  0  0
 20 50  1  0  0  0  0
 23 51  1  0  0  0  0
 23 52  1  0  0  0  0
 23 53  1  0  0  0  0
 24 54  1  0  0  0  0
 24 55  1  0  0  0  0
 24 56  1  0  0  0  0
 26 57  1  0  0  0  0
M  END
> <id>
EN300-311691

> <smiles>
C[C@@]12CC[C@H]3[C@@H](CC=C4C[C@@H](O)CC[C@]34C)[C@@H]2CC=C1C=5C=CC=NC5

> <MDLNUMBER>
MFCD00924100

> <IUPAC Name>
(3aS,3bR,7S,9aR,9bS,11aS)-9a,11a-dimethyl-1-(pyridin-3-yl)-3H,3aH,3bH,4H,6H,7H,8H,9H,9aH,9bH,10H,11H,11aH-cyclopenta[a]phenanthren-7-ol

> <CAS>
154229-19-3

> <Purity>
95

> <URL>
https://www.enaminestore.com/catalog/EN300-311691

> <MP>
226-230

> <ROCS_ShapeQuery>
_x0404_0B

> <ROCS_TanimotoCombo>
0.450 

> <ROCS_ShapeTanimoto>
0.377 

> <ROCS_ColorTanimoto>
0.073 

> <ROCS_RefTversky>
0.333 

> <ROCS_RefColorTversky>
0.079 

> <ROCS_RefTverskyCombo>
0.413 

> <ROCS_FitTversky>
1.525 

> <ROCS_FitColorTversky>
0.501 

> <ROCS_FitTverskyCombo>
2.026 

> <ROCS_ColorScore>
-5.710

> <ROCS_Overlap>
2228.855

> <ROCS_Rank>
93                  

$$$$
untitled-dbase-102870_16
  -OEChem-08222312023D

 41 44  0     1  0  0  0  0  0999 V2000
   -9.1504    2.5665   -8.7165 C   0  0  0  0  0  0  0  0  0  0  0  0
   -9.1503    3.6901   -7.9039 C   0  0  0  0  0  0  0  0  0  0  0  0
   -9.0229    2.7191  -10.0957 C   0  0  0  0  0  0  0  0  0  0  0  0
   -9.0197    4.9521   -8.4803 C   0  0  0  0  0  0  0  0  0  0  0  0
   -9.7848    4.0094  -16.8251 C   0  0  0  0  0  0  0  0  0  0  0  0
   -7.5045    4.7494  -17.0171 C   0  0  0  0  0  0  0  0  0  0  0  0
   -9.8726    4.0965  -18.2051 C   0  0  0  0  0  0  0  0  0  0  0  0
   -8.5747    4.3439  -16.2275 C   0  0  0  0  0  0  0  0  0  0  0  0
   -8.8948    3.9802  -10.6747 C   0  0  0  0  0  0  0  0  0  0  0  0
   -8.8898    5.1077   -9.8591 C   0  0  0  0  0  0  0  0  0  0  0  0
   -8.6852    5.3489  -12.5621 C   0  0  0  0  0  0  0  0  0  0  0  0
   -8.5994    6.4824  -11.7448 C   0  0  0  0  0  0  0  0  0  0  0  0
   -7.6943    4.8032  -18.3886 C   0  0  0  0  0  0  0  0  0  0  0  0
   -8.4283    4.2692  -14.7682 C   0  0  0  0  0  0  0  0  0  0  0  0
   -8.1686    7.7576  -14.6670 C   0  0  0  0  0  0  0  0  0  0  0  0
   -9.2302    6.6686  -14.6105 C   0  0  0  0  0  0  0  0  0  0  0  0
   -7.4004    7.8912  -13.3618 C   0  0  0  0  0  0  0  0  0  0  0  0
   -8.4413    8.8948  -11.3219 C   0  0  0  0  0  0  0  0  0  0  0  0
   -8.8549    4.4862  -19.0051 N   0  0  0  0  0  0  0  0  0  0  0  0
   -8.7914    4.1155  -12.0025 N   0  0  0  0  0  0  0  0  0  0  0  0
   -8.7465    6.3255  -10.4002 N   0  0  0  0  0  0  0  0  0  0  0  0
   -8.7370    5.4164  -14.0111 N   0  0  0  0  0  0  0  0  0  0  0  0
   -8.3022    7.7602  -12.2227 N   0  0  2  0  0  0  0  0  0  0  0  0
   -8.0137    3.1911  -14.3441 O   0  0  0  0  0  0  0  0  0  0  0  0
   -6.4301    5.2916  -19.4406 Cl  0  0  0  0  0  0  0  0  0  0  0  0
   -9.2518    1.5762   -8.2835 H   0  0  0  0  0  0  0  0  0  0  0  0
   -9.2506    3.5888   -6.8278 H   0  0  0  0  0  0  0  0  0  0  0  0
   -9.0284    1.8312  -10.7252 H   0  0  0  0  0  0  0  0  0  0  0  0
   -9.0173    5.8275   -7.8339 H   0  0  0  0  0  0  0  0  0  0  0  0
  -10.6394    3.6891  -16.2384 H   0  0  0  0  0  0  0  0  0  0  0  0
   -6.5510    5.0145  -16.5701 H   0  0  0  0  0  0  0  0  0  0  0  0
  -10.7945    3.8466  -18.7198 H   0  0  0  0  0  0  0  0  0  0  0  0
   -7.4608    7.5478  -15.4779 H   0  0  0  0  0  0  0  0  0  0  0  0
   -8.6543    8.7099  -14.9118 H   0  0  0  0  0  0  0  0  0  0  0  0
  -10.1162    7.0011  -14.0480 H   0  0  0  0  0  0  0  0  0  0  0  0
   -9.5926    6.4744  -15.6299 H   0  0  0  0  0  0  0  0  0  0  0  0
   -6.5971    7.1460  -13.3033 H   0  0  0  0  0  0  0  0  0  0  0  0
   -6.8955    8.8644  -13.3511 H   0  0  0  0  0  0  0  0  0  0  0  0
   -8.1702    9.8198  -11.8519 H   0  0  0  0  0  0  0  0  0  0  0  0
   -9.4833    8.9625  -10.9759 H   0  0  0  0  0  0  0  0  0  0  0  0
   -7.7757    8.7596  -10.4567 H   0  0  0  0  0  0  0  0  0  0  0  0
  1  2  2  0  0  0  0
  1  3  1  0  0  0  0
  2  4  1  0  0  0  0
  3  9  2  0  0  0  0
  4 10  2  0  0  0  0
  5  7  1  0  0  0  0
  5  8  2  0  0  0  0
  6  8  1  0  0  0  0
  6 13  2  0  0  0  0
  7 19  2  0  0  0  0
  8 14  1  0  0  0  0
  9 10  1  0  0  0  0
  9 20  1  0  0  0  0
 10 21  1  0  0  0  0
 11 12  1  0  0  0  0
 11 20  2  0  0  0  0
 11 22  1  0  0  0  0
 12 21  2  0  0  0  0
 12 23  1  0  0  0  0
 13 19  1  0  0  0  0
 13 25  1  0  0  0  0
 14 22  1  0  0  0  0
 14 24  2  0  0  0  0
 15 16  1  0  0  0  0
 15 17  1  0  0  0  0
 16 22  1  0  0  0  0
 17 23  1  0  0  0  0
 18 23  1  0  0  0  0
  1 26  1  0  0  0  0
  2 27  1  0  0  0  0
  3 28  1  0  0  0  0
  4 29  1  0  0  0  0
  5 30  1  0  0  0  0
  6 31  1  0  0  0  0
  7 32  1  0  0  0  0
 15 33  1  0  0  0  0
 15 34  1  0  0  0  0
 16 35  1  0  0  0  0
 16 36  1  0  0  0  0
 17 37  1  0  0  0  0
 17 38  1  0  0  0  0
 18 39  1  0  0  0  0
 18 40  1  0  0  0  0
 18 41  1  0  0  0  0
M  END
> <id>
EN300-26611487

> <smiles>
CN1CCCN(C(=O)C=2C=CN=C(Cl)C2)C=3N=C4C=CC=CC4=NC13

> <IUPAC Name>
2-chloro-4-{5-methyl-1H,2H,3H,4H,5H-[1,4]diazepino[2,3-b]quinoxaline-1-carbonyl}pyridine

> <CAS>
1043376-57-3

> <URL>
https://www.enaminestore.com/catalog/EN300-26611487

> <ROCS_ShapeQuery>
_x0404_0B

> <ROCS_TanimotoCombo>
0.450 

> <ROCS_ShapeTanimoto>
0.388 

> <ROCS_ColorTanimoto>
0.062 

> <ROCS_RefTversky>
0.341 

> <ROCS_RefColorTversky>
0.067 

> <ROCS_RefTverskyCombo>
0.408 

> <ROCS_FitTversky>
1.561 

> <ROCS_FitColorTversky>
0.426 

> <ROCS_FitTverskyCombo>
1.986 

> <ROCS_ColorScore>
-4.846

> <ROCS_Overlap>
2278.257

> <ROCS_Rank>
94                  

$$$$
untitled-dbase-27831_1
  -OEChem-08222312023D

 32 34  0     0  0  0  0  0  0999 V2000
   -9.5439    4.8854  -15.2971 C   0  0  0  0  0  0  0  0  0  0  0  0
   -9.4367    4.7455  -16.6808 C   0  0  0  0  0  0  0  0  0  0  0  0
   -7.3866    5.9714  -15.2396 C   0  0  0  0  0  0  0  0  0  0  0  0
   -9.0320    3.2098  -10.4570 C   0  0  0  0  0  0  0  0  0  0  0  0
   -9.1457    4.3273   -8.3159 C   0  0  0  0  0  0  0  0  0  0  0  0
   -8.5189    5.4984  -14.5765 C   0  0  0  0  0  0  0  0  0  0  0  0
   -8.8872    5.6173  -10.3385 C   0  0  0  0  0  0  0  0  0  0  0  0
   -8.8971    4.4452  -11.0912 C   0  0  0  0  0  0  0  0  0  0  0  0
   -8.3044    5.2186  -17.3439 C   0  0  0  0  0  0  0  0  0  0  0  0
   -7.2793    5.8315  -16.6233 C   0  0  0  0  0  0  0  0  0  0  0  0
   -9.1561    3.1524   -9.0687 C   0  0  0  0  0  0  0  0  0  0  0  0
   -9.0114    5.5641   -8.9480 C   0  0  0  0  0  0  0  0  0  0  0  0
   -8.6337    5.6484  -13.1150 C   0  0  0  0  0  0  0  0  0  0  0  0
   -8.7461    6.9068  -11.0322 C   0  0  0  0  0  0  0  0  0  0  0  0
   -8.6179    6.8493  -12.5083 C   0  0  0  0  0  0  0  0  0  0  0  0
   -8.7364    7.9693  -10.4251 O   0  0  0  0  0  0  0  0  0  0  0  0
   -8.7794    4.4374  -12.4570 O   0  0  0  0  0  0  0  0  0  0  0  0
   -8.2120    5.0757  -18.6954 O   0  0  0  0  0  0  0  0  0  0  0  0
   -6.1685    6.2964  -17.2605 O   0  0  0  0  0  0  0  0  0  0  0  0
   -9.2877    1.9482   -8.4473 O   0  0  0  0  0  0  0  0  0  0  0  0
   -9.0075    6.6801   -8.1669 O   0  0  0  0  0  0  0  0  0  0  0  0
   -8.5041    8.0383  -13.1959 O   0  0  0  0  0  0  0  0  0  0  0  0
  -10.4330    4.5127  -14.7942 H   0  0  0  0  0  0  0  0  0  0  0  0
  -10.2387    4.2668  -17.2361 H   0  0  0  0  0  0  0  0  0  0  0  0
   -6.5827    6.4511  -14.6856 H   0  0  0  0  0  0  0  0  0  0  0  0
   -9.0406    2.2931  -11.0413 H   0  0  0  0  0  0  0  0  0  0  0  0
   -9.2428    4.2770   -7.2340 H   0  0  0  0  0  0  0  0  0  0  0  0
   -7.3756    5.4488  -19.0155 H   0  0  0  0  0  0  0  0  0  0  0  0
   -5.5557    6.6914  -16.6206 H   0  0  0  0  0  0  0  0  0  0  0  0
   -9.3629    2.0716   -7.4878 H   0  0  0  0  0  0  0  0  0  0  0  0
   -8.9089    7.4735   -8.7164 H   0  0  0  0  0  0  0  0  0  0  0  0
   -8.5131    8.7769  -12.5779 H   0  0  0  0  0  0  0  0  0  0  0  0
  1  2  1  0  0  0  0
  1  6  2  0  0  0  0
  2  9  2  0  0  0  0
  3  6  1  0  0  0  0
  3 10  2  0  0  0  0
  4  8  2  0  0  0  0
  4 11  1  0  0  0  0
  5 11  2  0  0  0  0
  5 12  1  0  0  0  0
  6 13  1  0  0  0  0
  7  8  1  0  0  0  0
  7 12  2  0  0  0  0
  7 14  1  0  0  0  0
  8 17  1  0  0  0  0
  9 10  1  0  0  0  0
  9 18  1  0  0  0  0
 10 19  1  0  0  0  0
 11 20  1  0  0  0  0
 12 21  1  0  0  0  0
 13 15  2  0  0  0  0
 13 17  1  0  0  0  0
 14 15  1  0  0  0  0
 14 16  2  0  0  0  0
 15 22  1  0  0  0  0
  1 23  1  0  0  0  0
  2 24  1  0  0  0  0
  3 25  1  0  0  0  0
  4 26  1  0  0  0  0
  5 27  1  0  0  0  0
 18 28  1  0  0  0  0
 19 29  1  0  0  0  0
 20 30  1  0  0  0  0
 21 31  1  0  0  0  0
 22 32  1  0  0  0  0
M  END
> <id>
EN300-199773

> <smiles>
OC=1C=C(O)C=2C(=O)C(O)=C(OC2C1)C=3C=CC(O)=C(O)C3

> <MDLNUMBER>
MFCD00006828

> <IUPAC Name>
2-(3,4-dihydroxyphenyl)-3,5,7-trihydroxy-4H-chromen-4-one

> <CAS>
117-39-5

> <Purity>
95

> <URL>
https://www.enaminestore.com/catalog/EN300-199773

> <MP>
315-316

> <ROCS_ShapeQuery>
_x0404_0B

> <ROCS_TanimotoCombo>
0.450 

> <ROCS_ShapeTanimoto>
0.375 

> <ROCS_ColorTanimoto>
0.075 

> <ROCS_RefTversky>
0.327 

> <ROCS_RefColorTversky>
0.087 

> <ROCS_RefTverskyCombo>
0.414 

> <ROCS_FitTversky>
1.646 

> <ROCS_FitColorTversky>
0.349 

> <ROCS_FitTverskyCombo>
1.995 

> <ROCS_ColorScore>
-6.290

> <ROCS_Overlap>
2183.372

> <ROCS_Rank>
95                  

$$$$
untitled-dbase-146691_2138
  -OEChem-08222312023D

 54 56  0     1  0  0  0  0  0999 V2000
   -8.7125    5.5696  -16.7613 C   0  0  0  0  0  0  0  0  0  0  0  0
   -8.2162    5.2753  -15.5214 C   0  0  0  0  0  0  0  0  0  0  0  0
   -7.5268    4.0640  -15.6590 C   0  0  0  0  0  0  0  0  0  0  0  0
   -9.1951    5.2142   -9.0703 C   0  0  0  0  0  0  0  0  0  0  0  0
   -7.6228    6.4504  -12.1738 C   0  0  0  0  0  0  0  0  0  0  0  0
   -9.1691    4.5561  -12.6632 C   0  0  0  0  0  0  0  0  0  0  0  0
   -6.6665    4.4393  -13.4025 C   0  0  0  0  0  0  0  0  0  0  0  0
   -7.4512    5.9405  -10.7451 C   0  0  0  0  0  0  0  0  0  0  0  0
   -8.9803    4.0393  -11.2411 C   0  0  0  0  0  0  0  0  0  0  0  0
   -6.8045    3.4152  -14.5478 C   0  0  1  0  0  0  0  0  0  0  0  0
   -7.9417    5.3319  -13.1936 C   0  0  0  0  0  0  0  0  0  0  0  0
   -7.4984    4.9255  -19.8416 C   0  0  0  0  0  0  0  0  0  0  0  0
   -9.9764    4.9335  -19.3261 C   0  0  0  0  0  0  0  0  0  0  0  0
   -9.4707    4.5294   -6.3048 C   0  0  0  0  0  0  0  0  0  0  0  0
   -9.9395    2.2000   -7.1193 C   0  0  0  0  0  0  0  0  0  0  0  0
   -7.7110    3.2620   -7.5821 C   0  0  0  0  0  0  0  0  0  0  0  0
   -8.6084    4.3582  -18.9545 C   0  0  0  0  0  0  0  0  0  0  0  0
   -9.2093    3.5090   -7.4116 C   0  0  0  0  0  0  0  0  0  0  0  0
   -7.5860    3.5890  -16.9055 N   0  0  0  0  0  0  0  0  0  0  0  0
   -8.3158    4.5244  -17.5508 N   0  0  0  0  0  0  0  0  0  0  0  0
   -8.5863    5.1110  -10.3268 N   0  0  0  0  0  0  0  0  0  0  0  0
   -9.2549    6.2514   -8.4122 O   0  0  0  0  0  0  0  0  0  0  0  0
   -8.3390    6.0278  -14.4097 O   0  0  0  0  0  0  0  0  0  0  0  0
   -7.4879    2.2620  -14.0663 O   0  0  0  0  0  0  0  0  0  0  0  0
   -9.7288    4.0275   -8.6416 O   0  0  0  0  0  0  0  0  0  0  0  0
   -9.2876    6.4004  -17.1466 H   0  0  0  0  0  0  0  0  0  0  0  0
   -8.4235    7.2064  -12.1625 H   0  0  0  0  0  0  0  0  0  0  0  0
   -6.7034    6.9782  -12.4778 H   0  0  0  0  0  0  0  0  0  0  0  0
   -9.3903    3.7063  -13.3255 H   0  0  0  0  0  0  0  0  0  0  0  0
  -10.0528    5.2102  -12.6742 H   0  0  0  0  0  0  0  0  0  0  0  0
   -6.4653    3.8888  -12.4687 H   0  0  0  0  0  0  0  0  0  0  0  0
   -5.7768    5.0634  -13.5722 H   0  0  0  0  0  0  0  0  0  0  0  0
   -6.5150    5.3770  -10.6635 H   0  0  0  0  0  0  0  0  0  0  0  0
   -7.3854    6.7767  -10.0376 H   0  0  0  0  0  0  0  0  0  0  0  0
   -9.9168    3.6140  -10.8539 H   0  0  0  0  0  0  0  0  0  0  0  0
   -8.2442    3.2268  -11.2446 H   0  0  0  0  0  0  0  0  0  0  0  0
   -5.8135    3.0954  -14.8936 H   0  0  0  0  0  0  0  0  0  0  0  0
   -7.3891    6.0081  -19.7173 H   0  0  0  0  0  0  0  0  0  0  0  0
   -7.7137    4.7318  -20.8979 H   0  0  0  0  0  0  0  0  0  0  0  0
   -6.5339    4.4632  -19.6038 H   0  0  0  0  0  0  0  0  0  0  0  0
  -10.0017    6.0167  -19.1635 H   0  0  0  0  0  0  0  0  0  0  0  0
  -10.7629    4.4820  -18.7120 H   0  0  0  0  0  0  0  0  0  0  0  0
  -10.2263    4.7481  -20.3762 H   0  0  0  0  0  0  0  0  0  0  0  0
   -8.9483    5.4704   -6.5109 H   0  0  0  0  0  0  0  0  0  0  0  0
  -10.5393    4.7416   -6.1960 H   0  0  0  0  0  0  0  0  0  0  0  0
   -9.0898    4.1687   -5.3425 H   0  0  0  0  0  0  0  0  0  0  0  0
   -9.7548    1.4649   -7.9109 H   0  0  0  0  0  0  0  0  0  0  0  0
  -11.0240    2.3562   -7.0901 H   0  0  0  0  0  0  0  0  0  0  0  0
   -9.6258    1.7670   -6.1640 H   0  0  0  0  0  0  0  0  0  0  0  0
   -7.5232    2.5301   -8.3760 H   0  0  0  0  0  0  0  0  0  0  0  0
   -7.1757    4.1845   -7.8289 H   0  0  0  0  0  0  0  0  0  0  0  0
   -7.2786    2.8427   -6.6664 H   0  0  0  0  0  0  0  0  0  0  0  0
   -8.6503    3.2771  -19.1396 H   0  0  0  0  0  0  0  0  0  0  0  0
   -7.5566    1.6473  -14.8139 H   0  0  0  0  0  0  0  0  0  0  0  0
  1  2  2  0  0  0  0
  1 20  1  0  0  0  0
  2  3  1  0  0  0  0
  2 23  1  0  0  0  0
  3 10  1  0  0  0  0
  3 19  2  0  0  0  0
  4 21  1  0  0  0  0
  4 22  2  0  0  0  0
  4 25  1  0  0  0  0
  5  8  1  0  0  0  0
  5 11  1  0  0  0  0
  6  9  1  0  0  0  0
  6 11  1  0  0  0  0
  7 10  1  0  0  0  0
  7 11  1  0  0  0  0
  8 21  1  0  0  0  0
  9 21  1  0  0  0  0
 10 24  1  0  0  0  0
 11 23  1  0  0  0  0
 12 17  1  0  0  0  0
 13 17  1  0  0  0  0
 14 18  1  0  0  0  0
 15 18  1  0  0  0  0
 16 18  1  0  0  0  0
 17 20  1  0  0  0  0
 18 25  1  0  0  0  0
 19 20  1  0  0  0  0
  1 26  1  0  0  0  0
  5 27  1  0  0  0  0
  5 28  1  0  0  0  0
  6 29  1  0  0  0  0
  6 30  1  0  0  0  0
  7 31  1  0  0  0  0
  7 32  1  0  0  0  0
  8 33  1  0  0  0  0
  8 34  1  0  0  0  0
  9 35  1  0  0  0  0
  9 36  1  0  0  0  0
 10 37  1  0  0  0  0
 12 38  1  0  0  0  0
 12 39  1  0  0  0  0
 12 40  1  0  0  0  0
 13 41  1  0  0  0  0
 13 42  1  0  0  0  0
 13 43  1  0  0  0  0
 14 44  1  0  0  0  0
 14 45  1  0  0  0  0
 14 46  1  0  0  0  0
 15 47  1  0  0  0  0
 15 48  1  0  0  0  0
 15 49  1  0  0  0  0
 16 50  1  0  0  0  0
 16 51  1  0  0  0  0
 16 52  1  0  0  0  0
 17 53  1  0  0  0  0
 24 54  1  0  0  0  0
M  END
> <id>
EN300-27718479

> <smiles>
CC(C)N1C=C2OC3(CCN(CC3)C(=O)OC(C)(C)C)CC(O)C2=N1

> <IUPAC Name>
tert-butyl 7'-hydroxy-2'-(propan-2-yl)-6',7'-dihydro-2'H-spiro[piperidine-4,5'-pyrano[3,2-c]pyrazole]-1-carboxylate

> <CAS>
2639431-86-8

> <URL>
https://www.enaminestore.com/catalog/EN300-27718479

> <ROCS_ShapeQuery>
_x0404_0B

> <ROCS_TanimotoCombo>
0.450 

> <ROCS_ShapeTanimoto>
0.337 

> <ROCS_ColorTanimoto>
0.112 

> <ROCS_RefTversky>
0.306 

> <ROCS_RefColorTversky>
0.119 

> <ROCS_RefTverskyCombo>
0.425 

> <ROCS_FitTversky>
1.439 

> <ROCS_FitColorTversky>
0.649 

> <ROCS_FitTverskyCombo>
2.088 

> <ROCS_ColorScore>
-8.635

> <ROCS_Overlap>
2044.173

> <ROCS_Rank>
96                  

$$$$
untitled-dbase-119134_520
  -OEChem-08222312023D

 49 51  0     0  0  0  0  0  0999 V2000
   -8.4426    6.8001  -11.8024 C   0  0  0  0  0  0  0  0  0  0  0  0
   -8.4778    6.0588  -12.9724 C   0  0  0  0  0  0  0  0  0  0  0  0
   -8.8487    4.7267  -12.8278 C   0  0  0  0  0  0  0  0  0  0  0  0
   -9.0644    4.9976  -10.5704 C   0  0  0  0  0  0  0  0  0  0  0  0
   -7.4787    5.9384  -16.6110 C   0  0  0  0  0  0  0  0  0  0  0  0
   -8.1556    6.6742  -14.3003 C   0  0  0  0  0  0  0  0  0  0  0  0
   -8.8962    3.8244  -14.0296 C   0  0  0  0  0  0  0  0  0  0  0  0
   -8.2335    4.5419   -8.2157 C   0  0  0  0  0  0  0  0  0  0  0  0
   -9.8163    2.9209   -9.3199 C   0  0  0  0  0  0  0  0  0  0  0  0
   -9.1251    4.6099  -15.3160 C   0  0  0  0  0  0  0  0  0  0  0  0
   -8.5751    3.8852   -6.8780 C   0  0  0  0  0  0  0  0  0  0  0  0
  -10.0938    2.3293   -7.9377 C   0  0  0  0  0  0  0  0  0  0  0  0
   -9.3926    4.3945   -9.2142 C   0  0  0  0  0  0  0  0  0  0  0  0
   -6.2623    3.8860  -18.1913 C   0  0  0  0  0  0  0  0  0  0  0  0
   -8.1067    4.3191  -19.8405 C   0  0  0  0  0  0  0  0  0  0  0  0
   -6.4697    6.1420  -19.2877 C   0  0  0  0  0  0  0  0  0  0  0  0
   -7.2285    4.9294  -18.7504 C   0  0  0  0  0  0  0  0  0  0  0  0
   -8.7301    6.3000  -10.5835 N   0  0  0  0  0  0  0  0  0  0  0  0
   -9.1393    4.1700  -11.6296 N   0  0  0  0  0  0  0  0  0  0  0  0
   -8.9411    2.4789   -7.0491 N   0  0  0  0  0  0  0  0  0  0  0  0
   -8.1832    5.7241  -15.4209 N   0  0  0  0  0  0  0  0  0  0  0  0
   -6.4238    6.5649  -16.6909 O   0  0  0  0  0  0  0  0  0  0  0  0
   -8.0919    5.3636  -17.6934 O   0  0  0  0  0  0  0  0  0  0  0  0
   -8.1728    7.8516  -11.8116 H   0  0  0  0  0  0  0  0  0  0  0  0
   -8.8947    7.4501  -14.5312 H   0  0  0  0  0  0  0  0  0  0  0  0
   -7.1682    7.1457  -14.2505 H   0  0  0  0  0  0  0  0  0  0  0  0
   -7.9480    3.2768  -14.0900 H   0  0  0  0  0  0  0  0  0  0  0  0
   -9.6979    3.0873  -13.9064 H   0  0  0  0  0  0  0  0  0  0  0  0
   -8.0055    5.6029   -8.0563 H   0  0  0  0  0  0  0  0  0  0  0  0
   -7.3222    4.0846   -8.6242 H   0  0  0  0  0  0  0  0  0  0  0  0
   -9.0305    2.3354   -9.8163 H   0  0  0  0  0  0  0  0  0  0  0  0
  -10.7136    2.8305   -9.9442 H   0  0  0  0  0  0  0  0  0  0  0  0
   -9.0405    3.9439  -16.1806 H   0  0  0  0  0  0  0  0  0  0  0  0
  -10.1337    5.0415  -15.3330 H   0  0  0  0  0  0  0  0  0  0  0  0
   -7.7091    3.9474   -6.2099 H   0  0  0  0  0  0  0  0  0  0  0  0
   -9.3916    4.4261   -6.3846 H   0  0  0  0  0  0  0  0  0  0  0  0
  -10.9745    2.8048   -7.4892 H   0  0  0  0  0  0  0  0  0  0  0  0
  -10.3294    1.2641   -8.0374 H   0  0  0  0  0  0  0  0  0  0  0  0
  -10.2631    4.9748   -8.8182 H   0  0  0  0  0  0  0  0  0  0  0  0
   -5.6301    4.3202  -17.4085 H   0  0  0  0  0  0  0  0  0  0  0  0
   -6.7954    3.0269  -17.7711 H   0  0  0  0  0  0  0  0  0  0  0  0
   -5.5832    3.5241  -18.9717 H   0  0  0  0  0  0  0  0  0  0  0  0
   -8.8015    5.0643  -20.2445 H   0  0  0  0  0  0  0  0  0  0  0  0
   -8.7240    3.5087  -19.4363 H   0  0  0  0  0  0  0  0  0  0  0  0
   -7.5079    3.9203  -20.6656 H   0  0  0  0  0  0  0  0  0  0  0  0
   -7.1625    6.8906  -19.6888 H   0  0  0  0  0  0  0  0  0  0  0  0
   -5.8623    6.6151  -18.5093 H   0  0  0  0  0  0  0  0  0  0  0  0
   -5.8119    5.8543  -20.1159 H   0  0  0  0  0  0  0  0  0  0  0  0
   -8.1480    1.9778   -7.4503 H   0  0  0  0  0  0  0  0  0  0  0  0
  1  2  2  0  0  0  0
  1 18  1  0  0  0  0
  2  3  1  0  0  0  0
  2  6  1  0  0  0  0
  3  7  1  0  0  0  0
  3 19  2  0  0  0  0
  4 13  1  0  0  0  0
  4 18  2  0  0  0  0
  4 19  1  0  0  0  0
  5 21  1  0  0  0  0
  5 22  2  0  0  0  0
  5 23  1  0  0  0  0
  6 21  1  0  0  0  0
  7 10  1  0  0  0  0
  8 11  1  0  0  0  0
  8 13  1  0  0  0  0
  9 12  1  0  0  0  0
  9 13  1  0  0  0  0
 10 21  1  0  0  0  0
 11 20  1  0  0  0  0
 12 20  1  0  0  0  0
 14 17  1  0  0  0  0
 15 17  1  0  0  0  0
 16 17  1  0  0  0  0
 17 23  1  0  0  0  0
  1 24  1  0  0  0  0
  6 25  1  0  0  0  0
  6 26  1  0  0  0  0
  7 27  1  0  0  0  0
  7 28  1  0  0  0  0
  8 29  1  0  0  0  0
  8 30  1  0  0  0  0
  9 31  1  0  0  0  0
  9 32  1  0  0  0  0
 10 33  1  0  0  0  0
 10 34  1  0  0  0  0
 11 35  1  0  0  0  0
 11 36  1  0  0  0  0
 12 37  1  0  0  0  0
 12 38  1  0  0  0  0
 13 39  1  0  0  0  0
 14 40  1  0  0  0  0
 14 41  1  0  0  0  0
 14 42  1  0  0  0  0
 15 43  1  0  0  0  0
 15 44  1  0  0  0  0
 15 45  1  0  0  0  0
 16 46  1  0  0  0  0
 16 47  1  0  0  0  0
 16 48  1  0  0  0  0
 20 49  1  0  0  0  0
M  END
> <id>
EN300-7441970

> <smiles>
CC(C)(C)OC(=O)N1CCC=2N=C(N=CC2C1)C3CCNCC3

> <MDLNUMBER>
MFCD32200082

> <IUPAC Name>
tert-butyl 2-(piperidin-4-yl)-5H,6H,7H,8H-pyrido[4,3-d]pyrimidine-6-carboxylate

> <CAS>
2377035-74-8

> <Purity>
95

> <URL>
https://www.enaminestore.com/catalog/EN300-7441970

> <ROCS_ShapeQuery>
_x0404_0B

> <ROCS_TanimotoCombo>
0.450 

> <ROCS_ShapeTanimoto>
0.368 

> <ROCS_ColorTanimoto>
0.082 

> <ROCS_RefTversky>
0.322 

> <ROCS_RefColorTversky>
0.088 

> <ROCS_RefTverskyCombo>
0.411 

> <ROCS_FitTversky>
1.623 

> <ROCS_FitColorTversky>
0.517 

> <ROCS_FitTverskyCombo>
2.140 

> <ROCS_ColorScore>
-6.384

> <ROCS_Overlap>
2152.735

> <ROCS_Rank>
97                  

$$$$
untitled-dbase-120108_2761
  -OEChem-08222312023D

 47 48  0     0  0  0  0  0  0999 V2000
   -9.7508    3.7842  -18.6634 C   0  0  0  0  0  0  0  0  0  0  0  0
   -8.6903    4.4460  -19.2822 C   0  0  0  0  0  0  0  0  0  0  0  0
   -9.9116    3.8650  -17.2802 C   0  0  0  0  0  0  0  0  0  0  0  0
   -7.9512    5.2695  -17.1345 C   0  0  0  0  0  0  0  0  0  0  0  0
   -7.7905    5.1886  -18.5177 C   0  0  0  0  0  0  0  0  0  0  0  0
   -9.0117    4.6077  -16.5157 C   0  0  0  0  0  0  0  0  0  0  0  0
   -8.8110    5.7452  -14.2769 C   0  0  0  0  0  0  0  0  0  0  0  0
   -8.6315    5.2632   -8.7673 C   0  0  0  0  0  0  0  0  0  0  0  0
   -9.1611    4.2463  -12.2127 C   0  0  0  0  0  0  0  0  0  0  0  0
   -9.4357    6.6835  -12.0602 C   0  0  0  0  0  0  0  0  0  0  0  0
   -8.2306    4.2602  -11.0048 C   0  0  0  0  0  0  0  0  0  0  0  0
   -8.5247    6.7195  -10.8343 C   0  0  0  0  0  0  0  0  0  0  0  0
  -10.7909    3.3903   -8.6289 C   0  0  0  0  0  0  0  0  0  0  0  0
   -9.2004    1.9335   -7.3416 C   0  0  0  0  0  0  0  0  0  0  0  0
   -9.8693    4.1726   -6.4214 C   0  0  0  0  0  0  0  0  0  0  0  0
   -9.5856    3.3696   -7.6900 C   0  0  0  0  0  0  0  0  0  0  0  0
   -9.0991    5.5392  -12.9122 N   0  0  0  0  0  0  0  0  0  0  0  0
   -8.5066    5.4190  -10.1505 N   0  0  0  0  0  0  0  0  0  0  0  0
   -6.7187    5.8582  -19.1437 N   0  0  0  0  0  0  0  0  0  0  0  0
   -9.1748    4.6885  -15.1103 N   0  0  0  0  0  0  0  0  0  0  0  0
   -8.2580    6.7741  -14.6740 O   0  0  0  0  0  0  0  0  0  0  0  0
   -8.8620    6.1834   -7.9847 O   0  0  0  0  0  0  0  0  0  0  0  0
   -8.4711    3.9635   -8.3659 O   0  0  0  0  0  0  0  0  0  0  0  0
  -10.4517    3.2060  -19.2588 H   0  0  0  0  0  0  0  0  0  0  0  0
   -8.5742    4.3759  -20.3607 H   0  0  0  0  0  0  0  0  0  0  0  0
  -10.7415    3.3440  -16.8092 H   0  0  0  0  0  0  0  0  0  0  0  0
   -7.2493    5.8480  -16.5375 H   0  0  0  0  0  0  0  0  0  0  0  0
   -8.8635    3.4767  -12.9246 H   0  0  0  0  0  0  0  0  0  0  0  0
  -10.1804    4.0379  -11.8945 H   0  0  0  0  0  0  0  0  0  0  0  0
  -10.4748    6.5807  -11.7607 H   0  0  0  0  0  0  0  0  0  0  0  0
   -9.3128    7.6008  -12.6267 H   0  0  0  0  0  0  0  0  0  0  0  0
   -8.3712    3.3662  -10.3988 H   0  0  0  0  0  0  0  0  0  0  0  0
   -7.1931    4.2960  -11.3312 H   0  0  0  0  0  0  0  0  0  0  0  0
   -7.4946    6.9468  -11.1240 H   0  0  0  0  0  0  0  0  0  0  0  0
   -8.8528    7.4998  -10.1441 H   0  0  0  0  0  0  0  0  0  0  0  0
  -11.0706    4.4194   -8.8813 H   0  0  0  0  0  0  0  0  0  0  0  0
  -10.5881    2.8473   -9.5577 H   0  0  0  0  0  0  0  0  0  0  0  0
  -11.6678    2.9405   -8.1494 H   0  0  0  0  0  0  0  0  0  0  0  0
   -8.3360    1.9139   -6.6681 H   0  0  0  0  0  0  0  0  0  0  0  0
   -8.9043    1.3800   -8.2400 H   0  0  0  0  0  0  0  0  0  0  0  0
  -10.0262    1.3988   -6.8614 H   0  0  0  0  0  0  0  0  0  0  0  0
   -9.0049    4.1579   -5.7477 H   0  0  0  0  0  0  0  0  0  0  0  0
  -10.1116    5.2156   -6.6499 H   0  0  0  0  0  0  0  0  0  0  0  0
  -10.7045    3.7356   -5.8622 H   0  0  0  0  0  0  0  0  0  0  0  0
   -6.5874    5.7543  -20.1296 H   0  0  0  0  0  0  0  0  0  0  0  0
   -6.0537    6.3481  -18.5799 H   0  0  0  0  0  0  0  0  0  0  0  0
   -9.6229    3.8513  -14.6468 H   0  0  0  0  0  0  0  0  0  0  0  0
  1  2  2  0  0  0  0
  1  3  1  0  0  0  0
  2  5  1  0  0  0  0
  3  6  2  0  0  0  0
  4  5  2  0  0  0  0
  4  6  1  0  0  0  0
  5 19  1  0  0  0  0
  6 20  1  0  0  0  0
  7 17  1  0  0  0  0
  7 20  1  0  0  0  0
  7 21  2  0  0  0  0
  8 18  1  0  0  0  0
  8 22  2  0  0  0  0
  8 23  1  0  0  0  0
  9 11  1  0  0  0  0
  9 17  1  0  0  0  0
 10 12  1  0  0  0  0
 10 17  1  0  0  0  0
 11 18  1  0  0  0  0
 12 18  1  0  0  0  0
 13 16  1  0  0  0  0
 14 16  1  0  0  0  0
 15 16  1  0  0  0  0
 16 23  1  0  0  0  0
  1 24  1  0  0  0  0
  2 25  1  0  0  0  0
  3 26  1  0  0  0  0
  4 27  1  0  0  0  0
  9 28  1  0  0  0  0
  9 29  1  0  0  0  0
 10 30  1  0  0  0  0
 10 31  1  0  0  0  0
 11 32  1  0  0  0  0
 11 33  1  0  0  0  0
 12 34  1  0  0  0  0
 12 35  1  0  0  0  0
 13 36  1  0  0  0  0
 13 37  1  0  0  0  0
 13 38  1  0  0  0  0
 14 39  1  0  0  0  0
 14 40  1  0  0  0  0
 14 41  1  0  0  0  0
 15 42  1  0  0  0  0
 15 43  1  0  0  0  0
 15 44  1  0  0  0  0
 19 45  1  0  0  0  0
 19 46  1  0  0  0  0
 20 47  1  0  0  0  0
M  END
> <id>
EN300-7564195

> <smiles>
CC(C)(C)OC(=O)N1CCN(CC1)C(=O)NC=2C=CC=C(N)C2

> <MDLNUMBER>
MFCD32667458

> <IUPAC Name>
tert-butyl 4-[(3-aminophenyl)carbamoyl]piperazine-1-carboxylate

> <CAS>
2416235-30-6

> <Purity>
95

> <URL>
https://www.enaminestore.com/catalog/EN300-7564195

> <ROCS_ShapeQuery>
_x0404_0B

> <ROCS_TanimotoCombo>
0.450 

> <ROCS_ShapeTanimoto>
0.379 

> <ROCS_ColorTanimoto>
0.071 

> <ROCS_RefTversky>
0.329 

> <ROCS_RefColorTversky>
0.077 

> <ROCS_RefTverskyCombo>
0.406 

> <ROCS_FitTversky>
1.665 

> <ROCS_FitColorTversky>
0.487 

> <ROCS_FitTverskyCombo>
2.152 

> <ROCS_ColorScore>
-5.539

> <ROCS_Overlap>
2195.591

> <ROCS_Rank>
98                  

$$$$
untitled-dbase-89844_88
  -OEChem-08222312023D

 54 57  0     1  0  0  0  0  0999 V2000
   -9.2485    2.5483   -7.2100 C   0  0  0  0  0  0  0  0  0  0  0  0
   -8.3435    3.6085   -7.1596 C   0  0  0  0  0  0  0  0  0  0  0  0
   -9.9739    2.3054   -8.3764 C   0  0  0  0  0  0  0  0  0  0  0  0
   -8.1640    4.4260   -8.2755 C   0  0  0  0  0  0  0  0  0  0  0  0
   -9.7945    3.1228   -9.4923 C   0  0  0  0  0  0  0  0  0  0  0  0
   -7.8581    6.0629  -10.6288 C   0  0  0  0  0  0  0  0  0  0  0  0
   -8.8895    4.1831   -9.4418 C   0  0  0  0  0  0  0  0  0  0  0  0
   -8.0074    6.5401  -11.9042 C   0  0  0  0  0  0  0  0  0  0  0  0
   -8.9841    5.7272  -12.5246 C   0  0  0  0  0  0  0  0  0  0  0  0
   -5.5618    6.4048  -15.1142 C   0  0  0  0  0  0  0  0  0  0  0  0
   -5.8730    6.1943  -13.8270 C   0  0  0  0  0  0  0  0  0  0  0  0
   -9.4812    5.8532  -13.8855 C   0  0  0  0  0  0  0  0  0  0  0  0
   -7.8060    5.4603  -17.1162 C   0  0  0  0  0  0  0  0  0  0  0  0
   -5.3796    5.2886  -16.1026 C   0  0  0  0  0  0  0  0  0  0  0  0
   -5.9900    7.2736  -12.7845 C   0  0  0  0  0  0  0  0  0  0  0  0
  -10.5556    4.5978  -15.7498 C   0  0  0  0  0  0  0  0  0  0  0  0
   -5.7287    6.6855  -18.2673 C   0  0  0  0  0  0  0  0  0  0  0  0
   -5.7454    4.6298  -18.5628 C   0  0  0  0  0  0  0  0  0  0  0  0
   -9.6420    3.7649  -16.6593 C   0  0  1  0  0  0  0  0  0  0  0  0
   -6.2318    5.5118  -17.3641 C   0  0  0  0  0  0  0  0  0  0  0  0
  -10.2257    3.6709  -18.0693 C   0  0  0  0  0  0  0  0  0  0  0  0
   -9.3985    4.7638  -11.6882 N   0  0  0  0  0  0  0  0  0  0  0  0
   -8.7097    5.0000  -10.5557 N   0  0  0  0  0  0  0  0  0  0  0  0
  -10.0510    4.6973  -14.3922 N   0  0  0  0  0  0  0  0  0  0  0  0
   -8.2450    4.2044  -16.7089 N   0  0  0  0  0  0  0  0  0  0  0  0
   -5.8679    5.8073  -19.4462 N   0  0  0  0  0  0  0  0  0  0  0  0
   -9.3589    6.9022  -14.5122 O   0  0  0  0  0  0  0  0  0  0  0  0
   -8.5642    6.4134  -17.3176 O   0  0  0  0  0  0  0  0  0  0  0  0
   -7.3515    7.5832  -12.4556 O   0  0  0  0  0  0  0  0  0  0  0  0
   -9.3873    1.9105   -6.3420 H   0  0  0  0  0  0  0  0  0  0  0  0
   -7.7776    3.7970   -6.2520 H   0  0  0  0  0  0  0  0  0  0  0  0
  -10.6774    1.4787   -8.4153 H   0  0  0  0  0  0  0  0  0  0  0  0
   -7.4549    5.2485   -8.2231 H   0  0  0  0  0  0  0  0  0  0  0  0
  -10.3658    2.9218  -10.3953 H   0  0  0  0  0  0  0  0  0  0  0  0
   -7.2345    6.3681   -9.8004 H   0  0  0  0  0  0  0  0  0  0  0  0
   -5.4329    7.4152  -15.4769 H   0  0  0  0  0  0  0  0  0  0  0  0
   -6.0863    5.1742  -13.4904 H   0  0  0  0  0  0  0  0  0  0  0  0
   -4.3070    5.2262  -16.3499 H   0  0  0  0  0  0  0  0  0  0  0  0
   -5.6387    4.3182  -15.6469 H   0  0  0  0  0  0  0  0  0  0  0  0
   -5.4565    6.9405  -11.8596 H   0  0  0  0  0  0  0  0  0  0  0  0
   -5.4536    8.1971  -13.1283 H   0  0  0  0  0  0  0  0  0  0  0  0
  -10.6696    5.6198  -16.1335 H   0  0  0  0  0  0  0  0  0  0  0  0
  -11.5586    4.1549  -15.7064 H   0  0  0  0  0  0  0  0  0  0  0  0
   -6.3931    7.5550  -18.3086 H   0  0  0  0  0  0  0  0  0  0  0  0
   -4.7108    7.0378  -18.0892 H   0  0  0  0  0  0  0  0  0  0  0  0
   -4.7344    4.2239  -18.4891 H   0  0  0  0  0  0  0  0  0  0  0  0
   -6.4273    3.8161  -18.8314 H   0  0  0  0  0  0  0  0  0  0  0  0
   -9.6285    2.7100  -16.2571 H   0  0  0  0  0  0  0  0  0  0  0  0
  -10.2669    4.6620  -18.5176 H   0  0  0  0  0  0  0  0  0  0  0  0
  -11.2313    3.2569  -18.0247 H   0  0  0  0  0  0  0  0  0  0  0  0
   -9.6006    3.0261  -18.6844 H   0  0  0  0  0  0  0  0  0  0  0  0
  -10.0675    3.8502  -13.8275 H   0  0  0  0  0  0  0  0  0  0  0  0
   -7.5249    3.5237  -16.4166 H   0  0  0  0  0  0  0  0  0  0  0  0
   -6.7556    5.8846  -19.9367 H   0  0  0  0  0  0  0  0  0  0  0  0
  1  2  2  0  0  0  0
  1  3  1  0  0  0  0
  2  4  1  0  0  0  0
  3  5  2  0  0  0  0
  4  7  2  0  0  0  0
  5  7  1  0  0  0  0
  6  8  2  0  0  0  0
  6 23  1  0  0  0  0
  7 23  1  0  0  0  0
  8  9  1  0  0  0  0
  8 29  1  0  0  0  0
  9 12  1  0  0  0  0
  9 22  2  0  0  0  0
 10 11  2  0  0  0  0
 10 14  1  0  0  0  0
 11 15  1  0  0  0  0
 12 24  1  0  0  0  0
 12 27  2  0  0  0  0
 13 20  1  0  0  0  0
 13 25  1  0  0  0  0
 13 28  2  0  0  0  0
 14 20  1  0  0  0  0
 15 29  1  0  0  0  0
 16 19  1  0  0  0  0
 16 24  1  0  0  0  0
 17 20  1  0  0  0  0
 17 26  1  0  0  0  0
 18 20  1  0  0  0  0
 18 26  1  0  0  0  0
 19 21  1  6  0  0  0
 19 25  1  0  0  0  0
 22 23  1  0  0  0  0
  1 30  1  0  0  0  0
  2 31  1  0  0  0  0
  3 32  1  0  0  0  0
  4 33  1  0  0  0  0
  5 34  1  0  0  0  0
  6 35  1  0  0  0  0
 10 36  1  0  0  0  0
 11 37  1  0  0  0  0
 14 38  1  0  0  0  0
 14 39  1  0  0  0  0
 15 40  1  0  0  0  0
 15 41  1  0  0  0  0
 16 42  1  0  0  0  0
 16 43  1  0  0  0  0
 17 44  1  0  0  0  0
 17 45  1  0  0  0  0
 18 46  1  0  0  0  0
 18 47  1  0  0  0  0
 19 48  1  0  0  0  0
 21 49  1  0  0  0  0
 21 50  1  0  0  0  0
 21 51  1  0  0  0  0
 24 52  1  0  0  0  0
 25 53  1  0  0  0  0
 26 54  1  0  0  0  0
M  END
> <id>
EN300-6733243

> <smiles>
C[C@@H]1CNC(=O)C2=NN(C=C2OC/C=C/CC3(CNC3)C(=O)N1)C=4C=CC=CC4.OC(=O)C(F)(F)F

> <MDLNUMBER>
MFCD31746229

> <IUPAC Name>
(12'R)-12'-methyl-2'-phenyl-5',8',10',11',12',13',14',15'-octahydro-2'H-spiro[azetidine-3,9'-pyrazolo[4,3-b]1-oxa-5,8-diazacyclotetradecane]-10',15'-dione; trifluoroacetic acid

> <CAS>
2641566-08-5

> <URL>
https://www.enaminestore.com/catalog/EN300-6733243

> <Saltdate>
OC(=O)C(F)(F)F

> <ROCS_ShapeQuery>
_x0404_0B

> <ROCS_TanimotoCombo>
0.449 

> <ROCS_ShapeTanimoto>
0.374 

> <ROCS_ColorTanimoto>
0.075 

> <ROCS_RefTversky>
0.337 

> <ROCS_RefColorTversky>
0.084 

> <ROCS_RefTverskyCombo>
0.421 

> <ROCS_FitTversky>
1.411 

> <ROCS_FitColorTversky>
0.427 

> <ROCS_FitTverskyCombo>
1.837 

> <ROCS_ColorScore>
-6.070

> <ROCS_Overlap>
2256.976

> <ROCS_Rank>
99                  

$$$$
untitled-dbase-88899_9
  -OEChem-08222312023D

 81 85  0     1  0  0  0  0  0999 V2000
   -7.9136    3.4356  -11.9049 C   0  0  0  0  0  0  0  0  0  0  0  0
   -8.6544    4.2528  -11.1305 C   0  0  0  0  0  0  0  0  0  0  0  0
   -7.3747    5.1721   -8.4566 C   0  0  0  0  0  0  0  0  0  0  0  0
   -7.4876    3.7064  -13.3164 C   0  0  0  0  0  0  0  0  0  0  0  0
   -8.4247    7.6200  -15.0670 C   0  0  0  0  0  0  0  0  0  0  0  0
   -8.9510    4.2250  -17.6632 C   0  0  0  0  0  0  0  0  0  0  0  0
   -8.9527    6.7060  -10.5103 C   0  0  0  0  0  0  0  0  0  0  0  0
   -9.4741    6.2797   -9.1351 C   0  0  0  0  0  0  0  0  0  0  0  0
   -9.4673    4.5638   -7.3021 C   0  0  0  0  0  0  0  0  0  0  0  0
   -8.9633    7.3154  -13.6696 C   0  0  0  0  0  0  0  0  0  0  0  0
   -8.2344    3.9110  -16.3447 C   0  0  0  0  0  0  0  0  0  0  0  0
   -9.0011    3.1933   -6.8063 C   0  0  0  0  0  0  0  0  0  0  0  0
   -8.6512    2.4594   -9.2078 C   0  0  0  0  0  0  0  0  0  0  0  0
   -9.1286    3.8430   -9.7208 C   0  0  1  0  0  0  0  0  0  0  0  0
   -8.2390    4.8823  -13.9720 C   0  0  2  0  0  0  0  0  0  0  0  0
   -8.6215    6.4075  -15.9984 C   0  0  2  0  0  0  0  0  0  0  0  0
   -8.3776    5.4344  -18.3940 C   0  0  1  0  0  0  0  0  0  0  0  0
   -9.1215    5.6414  -11.6416 C   0  0  1  0  0  0  0  0  0  0  0  0
   -8.8587    4.9467   -8.6682 C   0  0  2  0  0  0  0  0  0  0  0  0
   -7.8224    5.1609  -15.4877 C   0  0  2  0  0  0  0  0  0  0  0  0
   -8.2897    6.1013  -12.9757 C   0  0  2  0  0  0  0  0  0  0  0  0
   -9.2305    2.0627   -7.8275 C   0  0  0  0  0  0  0  0  0  0  0  0
   -8.4728    6.7400  -17.5372 C   0  0  0  0  0  0  0  0  0  0  0  0
  -10.6490    5.5235  -11.9341 C   0  0  0  0  0  0  0  0  0  0  0  0
   -6.2949    5.3435  -15.6597 C   0  0  0  0  0  0  0  0  0  0  0  0
   -6.8512    6.5402  -12.5657 C   0  0  0  0  0  0  0  0  0  0  0  0
   -8.5106    0.7921   -7.3340 C   0  0  0  0  0  0  0  0  0  0  0  0
  -10.7330    1.7346   -7.9402 C   0  0  0  0  0  0  0  0  0  0  0  0
   -7.3128    7.7105  -17.8437 C   0  0  0  0  0  0  0  0  0  0  0  0
   -9.7744    7.4697  -17.9830 C   0  0  0  0  0  0  0  0  0  0  0  0
   -6.5899    5.5355   -9.3200 O   0  0  0  0  0  0  0  0  0  0  0  0
   -7.0294    4.9123   -7.1719 O   0  0  0  0  0  0  0  0  0  0  0  0
   -7.0460    5.1130  -18.7868 O   0  0  0  0  0  0  0  0  0  0  0  0
   -7.5850    2.4720  -11.5322 H   0  0  0  0  0  0  0  0  0  0  0  0
   -6.4086    3.8655  -13.2984 H   0  0  0  0  0  0  0  0  0  0  0  0
   -7.6675    2.7942  -13.8925 H   0  0  0  0  0  0  0  0  0  0  0  0
   -8.9797    8.4887  -15.4354 H   0  0  0  0  0  0  0  0  0  0  0  0
   -7.3788    7.9365  -15.0154 H   0  0  0  0  0  0  0  0  0  0  0  0
   -8.9626    3.3476  -18.3268 H   0  0  0  0  0  0  0  0  0  0  0  0
  -10.0177    4.4071  -17.4513 H   0  0  0  0  0  0  0  0  0  0  0  0
   -9.4521    7.6393  -10.7972 H   0  0  0  0  0  0  0  0  0  0  0  0
   -7.9002    6.9619  -10.3659 H   0  0  0  0  0  0  0  0  0  0  0  0
   -9.2414    7.0764   -8.4156 H   0  0  0  0  0  0  0  0  0  0  0  0
  -10.5682    6.2051   -9.1622 H   0  0  0  0  0  0  0  0  0  0  0  0
  -10.5624    4.5711   -7.3672 H   0  0  0  0  0  0  0  0  0  0  0  0
   -9.2053    5.3138   -6.5440 H   0  0  0  0  0  0  0  0  0  0  0  0
   -8.8689    8.2124  -13.0493 H   0  0  0  0  0  0  0  0  0  0  0  0
  -10.0340    7.1425  -13.7946 H   0  0  0  0  0  0  0  0  0  0  0  0
   -8.8974    3.2642  -15.7492 H   0  0  0  0  0  0  0  0  0  0  0  0
   -7.3475    3.3027  -16.5750 H   0  0  0  0  0  0  0  0  0  0  0  0
   -7.9328    3.2538   -6.5592 H   0  0  0  0  0  0  0  0  0  0  0  0
   -9.5142    2.9619   -5.8640 H   0  0  0  0  0  0  0  0  0  0  0  0
   -8.9283    1.6822   -9.9326 H   0  0  0  0  0  0  0  0  0  0  0  0
   -7.5544    2.4546   -9.1505 H   0  0  0  0  0  0  0  0  0  0  0  0
  -10.2175    3.7471   -9.8125 H   0  0  0  0  0  0  0  0  0  0  0  0
   -9.2786    4.5338  -14.0569 H   0  0  0  0  0  0  0  0  0  0  0  0
   -9.6819    6.1361  -15.9005 H   0  0  0  0  0  0  0  0  0  0  0  0
   -8.9693    5.5678  -19.3118 H   0  0  0  0  0  0  0  0  0  0  0  0
  -10.9980    6.4789  -12.2916 H   0  0  0  0  0  0  0  0  0  0  0  0
  -11.1475    5.2543  -11.0167 H   0  0  0  0  0  0  0  0  0  0  0  0
  -10.7903    4.7609  -12.6832 H   0  0  0  0  0  0  0  0  0  0  0  0
   -5.9802    6.1999  -15.0791 H   0  0  0  0  0  0  0  0  0  0  0  0
   -6.0803    5.5033  -16.7076 H   0  0  0  0  0  0  0  0  0  0  0  0
   -5.7969    4.4502  -15.3081 H   0  0  0  0  0  0  0  0  0  0  0  0
   -6.3685    5.7061  -12.0812 H   0  0  0  0  0  0  0  0  0  0  0  0
   -6.9328    7.3772  -11.8903 H   0  0  0  0  0  0  0  0  0  0  0  0
   -6.3166    6.8228  -13.4589 H   0  0  0  0  0  0  0  0  0  0  0  0
   -8.6693   -0.0064   -8.0497 H   0  0  0  0  0  0  0  0  0  0  0  0
   -8.9150    0.5071   -6.3695 H   0  0  0  0  0  0  0  0  0  0  0  0
   -7.4503    0.9982   -7.2420 H   0  0  0  0  0  0  0  0  0  0  0  0
  -10.8686    0.9382   -8.6628 H   0  0  0  0  0  0  0  0  0  0  0  0
  -11.2658    2.6209   -8.2648 H   0  0  0  0  0  0  0  0  0  0  0  0
  -11.1003    1.4185   -6.9706 H   0  0  0  0  0  0  0  0  0  0  0  0
   -7.2732    7.8904  -18.9121 H   0  0  0  0  0  0  0  0  0  0  0  0
   -6.3813    7.2667  -17.5110 H   0  0  0  0  0  0  0  0  0  0  0  0
   -7.4832    8.6441  -17.3198 H   0  0  0  0  0  0  0  0  0  0  0  0
   -9.6904    7.7048  -19.0332 H   0  0  0  0  0  0  0  0  0  0  0  0
   -9.8753    8.3724  -17.4000 H   0  0  0  0  0  0  0  0  0  0  0  0
  -10.6111    6.8105  -17.8084 H   0  0  0  0  0  0  0  0  0  0  0  0
   -6.0710    5.0507   -7.0149 H   0  0  0  0  0  0  0  0  0  0  0  0
   -7.1112    4.3399  -19.3673 H   0  0  0  0  0  0  0  0  0  0  0  0
  1  2  2  0  0  0  0
  1  4  1  0  0  0  0
  2 14  1  0  0  0  0
  2 18  1  0  0  0  0
  3 19  1  6  0  0  0
  3 31  2  0  0  0  0
  3 32  1  0  0  0  0
  4 15  1  0  0  0  0
  5 10  1  0  0  0  0
  5 16  1  0  0  0  0
  6 11  1  0  0  0  0
  6 17  1  0  0  0  0
  7  8  1  0  0  0  0
  7 18  1  0  0  0  0
  8 19  1  0  0  0  0
  9 12  1  0  0  0  0
  9 19  1  0  0  0  0
 10 21  1  0  0  0  0
 11 20  1  0  0  0  0
 12 22  1  0  0  0  0
 13 14  1  0  0  0  0
 13 22  1  0  0  0  0
 14 19  1  0  0  0  0
 15 20  1  0  0  0  0
 15 21  1  0  0  0  0
 16 20  1  0  0  0  0
 16 23  1  0  0  0  0
 17 23  1  0  0  0  0
 17 33  1  6  0  0  0
 18 21  1  0  0  0  0
 18 24  1  1  0  0  0
 20 25  1  6  0  0  0
 21 26  1  6  0  0  0
 22 27  1  0  0  0  0
 22 28  1  0  0  0  0
 23 29  1  0  0  0  0
 23 30  1  0  0  0  0
  1 34  1  0  0  0  0
  4 35  1  0  0  0  0
  4 36  1  0  0  0  0
  5 37  1  0  0  0  0
  5 38  1  0  0  0  0
  6 39  1  0  0  0  0
  6 40  1  0  0  0  0
  7 41  1  0  0  0  0
  7 42  1  0  0  0  0
  8 43  1  0  0  0  0
  8 44  1  0  0  0  0
  9 45  1  0  0  0  0
  9 46  1  0  0  0  0
 10 47  1  0  0  0  0
 10 48  1  0  0  0  0
 11 49  1  0  0  0  0
 11 50  1  0  0  0  0
 12 51  1  0  0  0  0
 12 52  1  0  0  0  0
 13 53  1  0  0  0  0
 13 54  1  0  0  0  0
 14 55  1  0  0  0  0
 15 56  1  0  0  0  0
 16 57  1  0  0  0  0
 17 58  1  0  0  0  0
 24 59  1  0  0  0  0
 24 60  1  0  0  0  0
 24 61  1  0  0  0  0
 25 62  1  0  0  0  0
 25 63  1  0  0  0  0
 25 64  1  0  0  0  0
 26 65  1  0  0  0  0
 26 66  1  0  0  0  0
 26 67  1  0  0  0  0
 27 68  1  0  0  0  0
 27 69  1  0  0  0  0
 27 70  1  0  0  0  0
 28 71  1  0  0  0  0
 28 72  1  0  0  0  0
 28 73  1  0  0  0  0
 29 74  1  0  0  0  0
 29 75  1  0  0  0  0
 29 76  1  0  0  0  0
 30 77  1  0  0  0  0
 30 78  1  0  0  0  0
 30 79  1  0  0  0  0
 32 80  1  0  0  0  0
 33 81  1  0  0  0  0
M  END
> <id>
EN300-19635029

> <smiles>
CC1(C)CC[C@@]2(CC[C@]3(C)C(=CCC4[C@@]5(C)CC[C@H](O)C(C)(C)C5CC[C@]43C)C2C1)C(=O)O

> <MDLNUMBER>
MFCD16171038

> <IUPAC Name>
(4aS,6aS,6bR,10S,12aR)-10-hydroxy-2,2,6a,6b,9,9,12a-heptamethyl-1,2,3,4,4a,5,6,6a,6b,7,8,8a,9,10,11,12,12a,12b,13,14b-icosahydropicene-4a-carboxylic acid

> <URL>
https://www.enaminestore.com/catalog/EN300-19635029

> <ROCS_ShapeQuery>
_x0404_0B

> <ROCS_TanimotoCombo>
0.449 

> <ROCS_ShapeTanimoto>
0.402 

> <ROCS_ColorTanimoto>
0.047 

> <ROCS_RefTversky>
0.361 

> <ROCS_RefColorTversky>
0.054 

> <ROCS_RefTverskyCombo>
0.415 

> <ROCS_FitTversky>
1.399 

> <ROCS_FitColorTversky>
0.259 

> <ROCS_FitTverskyCombo>
1.658 

> <ROCS_ColorScore>
-3.935

> <ROCS_Overlap>
2417.009

> <ROCS_Rank>
100                 

$$$$
untitled-dbase-79188_52
  -OEChem-08222312023D

 47 50  0     1  0  0  0  0  0999 V2000
   -8.3232    6.0868  -14.8080 C   0  0  0  0  0  0  0  0  0  0  0  0
   -7.8994    5.5104  -15.7728 C   0  0  0  0  0  0  0  0  0  0  0  0
   -9.8841    8.7391  -12.6731 C   0  0  0  0  0  0  0  0  0  0  0  0
   -9.3818    8.0506  -13.7929 C   0  0  0  0  0  0  0  0  0  0  0  0
   -9.8431    8.1621  -11.4030 C   0  0  0  0  0  0  0  0  0  0  0  0
   -8.8291    6.7722  -13.6622 C   0  0  0  0  0  0  0  0  0  0  0  0
   -9.2923    6.8995  -11.3013 C   0  0  0  0  0  0  0  0  0  0  0  0
   -8.7902    6.2048  -12.4026 C   0  0  0  0  0  0  0  0  0  0  0  0
   -9.1192    6.0621  -10.1091 C   0  0  0  0  0  0  0  0  0  0  0  0
   -8.6884    2.0975   -7.3666 C   0  0  0  0  0  0  0  0  0  0  0  0
   -9.3296    2.8122   -9.6847 C   0  0  0  0  0  0  0  0  0  0  0  0
   -8.2628    4.8751  -11.9835 C   0  0  0  0  0  0  0  0  0  0  0  0
   -7.5647    3.1064   -7.3717 C   0  0  0  0  0  0  0  0  0  0  0  0
   -7.8861    4.2912   -8.2643 C   0  0  0  0  0  0  0  0  0  0  0  0
   -5.8493    4.9247  -17.0156 C   0  0  0  0  0  0  0  0  0  0  0  0
   -8.0406    5.3254  -18.2434 C   0  0  0  0  0  0  0  0  0  0  0  0
   -5.3420    4.8738  -18.4539 C   0  0  0  0  0  0  0  0  0  0  0  0
   -7.2014    6.4164  -18.9066 C   0  0  0  0  0  0  0  0  0  0  0  0
   -7.3802    4.8030  -16.9574 C   0  0  0  0  0  0  0  0  0  0  0  0
   -8.1751    3.7982   -9.6730 C   0  0  2  0  0  0  0  0  0  0  0  0
   -9.4531    2.0435   -8.5278 N   0  0  0  0  0  0  0  0  0  0  0  0
   -5.8536    5.9764  -19.2698 N   0  0  0  0  0  0  0  0  0  0  0  0
   -8.5156    4.8886  -10.5476 N   0  0  0  0  0  0  0  0  0  0  0  0
   -9.4601    6.3925   -8.9882 O   0  0  0  0  0  0  0  0  0  0  0  0
   -8.8697    1.3436   -6.4107 O   0  0  0  0  0  0  0  0  0  0  0  0
  -10.0547    2.6458  -10.6654 O   0  0  0  0  0  0  0  0  0  0  0  0
  -10.3085    9.7313  -12.8010 H   0  0  0  0  0  0  0  0  0  0  0  0
   -9.4315    8.5339  -14.7667 H   0  0  0  0  0  0  0  0  0  0  0  0
  -10.2295    8.6903  -10.5392 H   0  0  0  0  0  0  0  0  0  0  0  0
   -8.8177    4.0486  -12.4361 H   0  0  0  0  0  0  0  0  0  0  0  0
   -7.1867    4.7840  -12.1559 H   0  0  0  0  0  0  0  0  0  0  0  0
   -7.4037    3.4524   -6.3450 H   0  0  0  0  0  0  0  0  0  0  0  0
   -6.6537    2.5991   -7.7084 H   0  0  0  0  0  0  0  0  0  0  0  0
   -8.7557    4.8260   -7.8598 H   0  0  0  0  0  0  0  0  0  0  0  0
   -7.0404    4.9886   -8.2678 H   0  0  0  0  0  0  0  0  0  0  0  0
   -5.4009    4.0996  -16.4532 H   0  0  0  0  0  0  0  0  0  0  0  0
   -5.5211    5.8539  -16.5429 H   0  0  0  0  0  0  0  0  0  0  0  0
   -9.0420    5.7121  -18.0299 H   0  0  0  0  0  0  0  0  0  0  0  0
   -8.1617    4.4960  -18.9489 H   0  0  0  0  0  0  0  0  0  0  0  0
   -4.2400    4.8692  -18.4771 H   0  0  0  0  0  0  0  0  0  0  0  0
   -5.6595    3.9247  -18.9112 H   0  0  0  0  0  0  0  0  0  0  0  0
   -7.7168    6.7539  -19.8230 H   0  0  0  0  0  0  0  0  0  0  0  0
   -7.1416    7.3076  -18.2547 H   0  0  0  0  0  0  0  0  0  0  0  0
   -7.6370    3.7388  -16.8410 H   0  0  0  0  0  0  0  0  0  0  0  0
   -7.2965    3.2969  -10.0962 H   0  0  0  0  0  0  0  0  0  0  0  0
  -10.1996    1.3536   -8.5335 H   0  0  0  0  0  0  0  0  0  0  0  0
   -5.2086    6.7770  -19.1936 H   0  0  0  0  0  0  0  0  0  0  0  0
  1  2  3  0  0  0  0
  1  6  1  0  0  0  0
  2 19  1  0  0  0  0
  3  4  1  0  0  0  0
  3  5  2  0  0  0  0
  4  6  2  0  0  0  0
  5  7  1  0  0  0  0
  6  8  1  0  0  0  0
  7  8  2  0  0  0  0
  7  9  1  0  0  0  0
  8 12  1  0  0  0  0
  9 23  1  0  0  0  0
  9 24  2  0  0  0  0
 10 13  1  0  0  0  0
 10 21  1  0  0  0  0
 10 25  2  0  0  0  0
 11 20  1  0  0  0  0
 11 21  1  0  0  0  0
 11 26  2  0  0  0  0
 12 23  1  0  0  0  0
 13 14  1  0  0  0  0
 14 20  1  0  0  0  0
 15 17  1  0  0  0  0
 15 19  1  0  0  0  0
 16 18  1  0  0  0  0
 16 19  1  0  0  0  0
 17 22  1  0  0  0  0
 18 22  1  0  0  0  0
 20 23  1  0  0  0  0
  3 27  1  0  0  0  0
  4 28  1  0  0  0  0
  5 29  1  0  0  0  0
 12 30  1  0  0  0  0
 12 31  1  0  0  0  0
 13 32  1  0  0  0  0
 13 33  1  0  0  0  0
 14 34  1  0  0  0  0
 14 35  1  0  0  0  0
 15 36  1  0  0  0  0
 15 37  1  0  0  0  0
 16 38  1  0  0  0  0
 16 39  1  0  0  0  0
 17 40  1  0  0  0  0
 17 41  1  0  0  0  0
 18 42  1  0  0  0  0
 18 43  1  0  0  0  0
 19 44  1  0  0  0  0
 20 45  1  0  0  0  0
 21 46  1  0  0  0  0
 22 47  1  0  0  0  0
M  END
> <id>
EN300-7471603

> <smiles>
Cl.O=C1N(CC=2C1=CC=CC2C#CC3CCNCC3)C4CCC(=O)NC4=O

> <MDLNUMBER>
MFCD32640684

> <IUPAC Name>
3-{1-oxo-4-[2-(piperidin-4-yl)ethynyl]-2,3-dihydro-1H-isoindol-2-yl}piperidine-2,6-dione hydrochloride

> <CAS>
2408958-59-6

> <Purity>
95

> <URL>
https://www.enaminestore.com/catalog/EN300-7471603

> <Saltdate>
Cl

> <ROCS_ShapeQuery>
_x0404_0B

> <ROCS_TanimotoCombo>
0.449 

> <ROCS_ShapeTanimoto>
0.362 

> <ROCS_ColorTanimoto>
0.087 

> <ROCS_RefTversky>
0.325 

> <ROCS_RefColorTversky>
0.095 

> <ROCS_RefTverskyCombo>
0.419 

> <ROCS_FitTversky>
1.473 

> <ROCS_FitColorTversky>
0.514 

> <ROCS_FitTverskyCombo>
1.987 

> <ROCS_ColorScore>
-6.838

> <ROCS_Overlap>
2170.021

> <ROCS_Rank>
101                 

$$$$
untitled-dbase-157940_52
  -OEChem-08222312023D

 47 50  0     1  0  0  0  0  0999 V2000
   -8.3232    6.0868  -14.8080 C   0  0  0  0  0  0  0  0  0  0  0  0
   -7.8994    5.5104  -15.7728 C   0  0  0  0  0  0  0  0  0  0  0  0
   -9.8841    8.7391  -12.6731 C   0  0  0  0  0  0  0  0  0  0  0  0
   -9.3818    8.0506  -13.7929 C   0  0  0  0  0  0  0  0  0  0  0  0
   -9.8431    8.1621  -11.4030 C   0  0  0  0  0  0  0  0  0  0  0  0
   -8.8291    6.7722  -13.6622 C   0  0  0  0  0  0  0  0  0  0  0  0
   -9.2923    6.8995  -11.3013 C   0  0  0  0  0  0  0  0  0  0  0  0
   -8.7902    6.2048  -12.4026 C   0  0  0  0  0  0  0  0  0  0  0  0
   -9.1192    6.0621  -10.1091 C   0  0  0  0  0  0  0  0  0  0  0  0
   -8.6884    2.0975   -7.3666 C   0  0  0  0  0  0  0  0  0  0  0  0
   -9.3296    2.8122   -9.6847 C   0  0  0  0  0  0  0  0  0  0  0  0
   -8.2628    4.8751  -11.9835 C   0  0  0  0  0  0  0  0  0  0  0  0
   -7.5647    3.1064   -7.3717 C   0  0  0  0  0  0  0  0  0  0  0  0
   -7.8861    4.2912   -8.2643 C   0  0  0  0  0  0  0  0  0  0  0  0
   -5.8493    4.9247  -17.0156 C   0  0  0  0  0  0  0  0  0  0  0  0
   -8.0406    5.3254  -18.2434 C   0  0  0  0  0  0  0  0  0  0  0  0
   -5.3420    4.8738  -18.4539 C   0  0  0  0  0  0  0  0  0  0  0  0
   -7.2014    6.4164  -18.9066 C   0  0  0  0  0  0  0  0  0  0  0  0
   -7.3802    4.8030  -16.9574 C   0  0  0  0  0  0  0  0  0  0  0  0
   -8.1751    3.7982   -9.6730 C   0  0  2  0  0  0  0  0  0  0  0  0
   -9.4531    2.0435   -8.5278 N   0  0  0  0  0  0  0  0  0  0  0  0
   -5.8536    5.9764  -19.2698 N   0  0  0  0  0  0  0  0  0  0  0  0
   -8.5156    4.8886  -10.5476 N   0  0  0  0  0  0  0  0  0  0  0  0
   -9.4601    6.3925   -8.9882 O   0  0  0  0  0  0  0  0  0  0  0  0
   -8.8697    1.3436   -6.4107 O   0  0  0  0  0  0  0  0  0  0  0  0
  -10.0547    2.6458  -10.6654 O   0  0  0  0  0  0  0  0  0  0  0  0
  -10.3085    9.7313  -12.8010 H   0  0  0  0  0  0  0  0  0  0  0  0
   -9.4315    8.5339  -14.7667 H   0  0  0  0  0  0  0  0  0  0  0  0
  -10.2295    8.6903  -10.5392 H   0  0  0  0  0  0  0  0  0  0  0  0
   -8.8177    4.0486  -12.4361 H   0  0  0  0  0  0  0  0  0  0  0  0
   -7.1867    4.7840  -12.1559 H   0  0  0  0  0  0  0  0  0  0  0  0
   -7.4037    3.4524   -6.3450 H   0  0  0  0  0  0  0  0  0  0  0  0
   -6.6537    2.5991   -7.7084 H   0  0  0  0  0  0  0  0  0  0  0  0
   -8.7557    4.8260   -7.8598 H   0  0  0  0  0  0  0  0  0  0  0  0
   -7.0404    4.9886   -8.2678 H   0  0  0  0  0  0  0  0  0  0  0  0
   -5.4009    4.0996  -16.4532 H   0  0  0  0  0  0  0  0  0  0  0  0
   -5.5211    5.8539  -16.5429 H   0  0  0  0  0  0  0  0  0  0  0  0
   -9.0420    5.7121  -18.0299 H   0  0  0  0  0  0  0  0  0  0  0  0
   -8.1617    4.4960  -18.9489 H   0  0  0  0  0  0  0  0  0  0  0  0
   -4.2400    4.8692  -18.4771 H   0  0  0  0  0  0  0  0  0  0  0  0
   -5.6595    3.9247  -18.9112 H   0  0  0  0  0  0  0  0  0  0  0  0
   -7.7168    6.7539  -19.8230 H   0  0  0  0  0  0  0  0  0  0  0  0
   -7.1416    7.3076  -18.2547 H   0  0  0  0  0  0  0  0  0  0  0  0
   -7.6370    3.7388  -16.8410 H   0  0  0  0  0  0  0  0  0  0  0  0
   -7.2965    3.2969  -10.0962 H   0  0  0  0  0  0  0  0  0  0  0  0
  -10.1996    1.3536   -8.5335 H   0  0  0  0  0  0  0  0  0  0  0  0
   -5.2086    6.7770  -19.1936 H   0  0  0  0  0  0  0  0  0  0  0  0
  1  2  3  0  0  0  0
  1  6  1  0  0  0  0
  2 19  1  0  0  0  0
  3  4  1  0  0  0  0
  3  5  2  0  0  0  0
  4  6  2  0  0  0  0
  5  7  1  0  0  0  0
  6  8  1  0  0  0  0
  7  8  2  0  0  0  0
  7  9  1  0  0  0  0
  8 12  1  0  0  0  0
  9 23  1  0  0  0  0
  9 24  2  0  0  0  0
 10 13  1  0  0  0  0
 10 21  1  0  0  0  0
 10 25  2  0  0  0  0
 11 20  1  0  0  0  0
 11 21  1  0  0  0  0
 11 26  2  0  0  0  0
 12 23  1  0  0  0  0
 13 14  1  0  0  0  0
 14 20  1  0  0  0  0
 15 17  1  0  0  0  0
 15 19  1  0  0  0  0
 16 18  1  0  0  0  0
 16 19  1  0  0  0  0
 17 22  1  0  0  0  0
 18 22  1  0  0  0  0
 20 23  1  0  0  0  0
  3 27  1  0  0  0  0
  4 28  1  0  0  0  0
  5 29  1  0  0  0  0
 12 30  1  0  0  0  0
 12 31  1  0  0  0  0
 13 32  1  0  0  0  0
 13 33  1  0  0  0  0
 14 34  1  0  0  0  0
 14 35  1  0  0  0  0
 15 36  1  0  0  0  0
 15 37  1  0  0  0  0
 16 38  1  0  0  0  0
 16 39  1  0  0  0  0
 17 40  1  0  0  0  0
 17 41  1  0  0  0  0
 18 42  1  0  0  0  0
 18 43  1  0  0  0  0
 19 44  1  0  0  0  0
 20 45  1  0  0  0  0
 21 46  1  0  0  0  0
 22 47  1  0  0  0  0
M  END
> <id>
EN300-7465391

> <smiles>
O=C1N(CC=2C1=CC=CC2C#CC3CCNCC3)C4CCC(=O)NC4=O

> <MDLNUMBER>
MFCD32640693

> <IUPAC Name>
3-{1-oxo-4-[2-(piperidin-4-yl)ethynyl]-2,3-dihydro-1H-isoindol-2-yl}piperidine-2,6-dione

> <CAS>
2138440-50-1

> <URL>
https://www.enaminestore.com/catalog/EN300-7465391

> <ROCS_ShapeQuery>
_x0404_0B

> <ROCS_TanimotoCombo>
0.449 

> <ROCS_ShapeTanimoto>
0.362 

> <ROCS_ColorTanimoto>
0.087 

> <ROCS_RefTversky>
0.325 

> <ROCS_RefColorTversky>
0.095 

> <ROCS_RefTverskyCombo>
0.419 

> <ROCS_FitTversky>
1.473 

> <ROCS_FitColorTversky>
0.514 

> <ROCS_FitTverskyCombo>
1.987 

> <ROCS_ColorScore>
-6.838

> <ROCS_Overlap>
2170.021

> <ROCS_Rank>
102                 

$$$$
untitled-dbase-156669_0
  -OEChem-08222312023D

 56 58  0     0  0  0  0  0  0999 V2000
   -8.9684    3.8876   -9.0801 B   0  0  0  0  0  0  0  0  0  0  0  0
   -8.8497    6.0873  -10.1662 C   0  0  0  0  0  0  0  0  0  0  0  0
   -8.7250    6.4802  -12.5482 C   0  0  0  0  0  0  0  0  0  0  0  0
   -8.8541    4.7192  -10.4073 C   0  0  0  0  0  0  0  0  0  0  0  0
   -8.7792    4.2175  -11.7202 C   0  0  0  0  0  0  0  0  0  0  0  0
   -8.7112    5.1012  -12.8233 C   0  0  0  0  0  0  0  0  0  0  0  0
   -8.7873    6.9662  -11.2371 C   0  0  0  0  0  0  0  0  0  0  0  0
   -8.4400    5.3790  -15.3142 C   0  0  0  0  0  0  0  0  0  0  0  0
   -8.8221    2.7218  -11.8906 C   0  0  0  0  0  0  0  0  0  0  0  0
   -8.2545    2.3060  -13.2314 C   0  0  0  0  0  0  0  0  0  0  0  0
   -8.8941    3.1291  -14.3340 C   0  0  0  0  0  0  0  0  0  0  0  0
   -8.9351    3.3840   -6.8462 C   0  0  0  0  0  0  0  0  0  0  0  0
   -9.3157    2.1122   -7.6756 C   0  0  0  0  0  0  0  0  0  0  0  0
  -10.1150    4.0549   -6.1075 C   0  0  0  0  0  0  0  0  0  0  0  0
   -7.8033    3.1719   -5.8309 C   0  0  0  0  0  0  0  0  0  0  0  0
  -10.5772    1.3845   -7.1902 C   0  0  0  0  0  0  0  0  0  0  0  0
   -8.1878    1.0650   -7.8134 C   0  0  0  0  0  0  0  0  0  0  0  0
   -6.8659    6.0157  -17.6285 C   0  0  0  0  0  0  0  0  0  0  0  0
   -8.3160    4.3626  -18.8426 C   0  0  0  0  0  0  0  0  0  0  0  0
   -9.3406    6.4242  -17.8383 C   0  0  0  0  0  0  0  0  0  0  0  0
   -8.2475    5.3663  -17.6936 C   0  0  0  0  0  0  0  0  0  0  0  0
   -8.6600    4.5762  -14.1724 N   0  0  0  0  0  0  0  0  0  0  0  0
   -8.2335    6.5893  -15.3260 O   0  0  0  0  0  0  0  0  0  0  0  0
   -8.4671    4.3339   -7.8573 O   0  0  0  0  0  0  0  0  0  0  0  0
   -9.5803    2.6358   -9.0170 O   0  0  0  0  0  0  0  0  0  0  0  0
   -8.4698    4.6444  -16.4760 O   0  0  0  0  0  0  0  0  0  0  0  0
   -8.8018    8.2880  -11.0180 F   0  0  0  0  0  0  0  0  0  0  0  0
   -8.9053    6.5105   -9.1647 H   0  0  0  0  0  0  0  0  0  0  0  0
   -8.7221    7.2328  -13.3270 H   0  0  0  0  0  0  0  0  0  0  0  0
   -8.2362    2.2061  -11.1218 H   0  0  0  0  0  0  0  0  0  0  0  0
   -9.8640    2.3863  -11.8107 H   0  0  0  0  0  0  0  0  0  0  0  0
   -7.1661    2.4475  -13.2495 H   0  0  0  0  0  0  0  0  0  0  0  0
   -8.4412    1.2394  -13.4000 H   0  0  0  0  0  0  0  0  0  0  0  0
   -8.4925    2.7813  -15.2912 H   0  0  0  0  0  0  0  0  0  0  0  0
   -9.9802    2.9771  -14.3629 H   0  0  0  0  0  0  0  0  0  0  0  0
   -9.7463    4.9185   -5.5683 H   0  0  0  0  0  0  0  0  0  0  0  0
  -10.5465    3.3426   -5.4155 H   0  0  0  0  0  0  0  0  0  0  0  0
  -10.8563    4.3609   -6.8350 H   0  0  0  0  0  0  0  0  0  0  0  0
   -7.6099    4.1029   -5.3060 H   0  0  0  0  0  0  0  0  0  0  0  0
   -6.9047    2.8561   -6.3528 H   0  0  0  0  0  0  0  0  0  0  0  0
   -8.0967    2.4072   -5.1177 H   0  0  0  0  0  0  0  0  0  0  0  0
  -10.7615    0.5204   -7.8220 H   0  0  0  0  0  0  0  0  0  0  0  0
  -11.4263    2.0597   -7.2424 H   0  0  0  0  0  0  0  0  0  0  0  0
  -10.4343    1.0596   -6.1637 H   0  0  0  0  0  0  0  0  0  0  0  0
   -8.5525    0.2316   -8.4005 H   0  0  0  0  0  0  0  0  0  0  0  0
   -7.9016    0.7256   -6.8259 H   0  0  0  0  0  0  0  0  0  0  0  0
   -7.3409    1.5243   -8.3076 H   0  0  0  0  0  0  0  0  0  0  0  0
   -6.8127    6.7368  -16.8051 H   0  0  0  0  0  0  0  0  0  0  0  0
   -6.0760    5.2704  -17.4897 H   0  0  0  0  0  0  0  0  0  0  0  0
   -6.6544    6.5775  -18.5455 H   0  0  0  0  0  0  0  0  0  0  0  0
   -9.3056    3.8942  -18.8930 H   0  0  0  0  0  0  0  0  0  0  0  0
   -7.5968    3.5492  -18.6936 H   0  0  0  0  0  0  0  0  0  0  0  0
   -8.1077    4.8375  -19.8068 H   0  0  0  0  0  0  0  0  0  0  0  0
  -10.3317    5.9586  -17.8850 H   0  0  0  0  0  0  0  0  0  0  0  0
   -9.3301    7.1318  -17.0030 H   0  0  0  0  0  0  0  0  0  0  0  0
   -9.2184    6.9855  -18.7717 H   0  0  0  0  0  0  0  0  0  0  0  0
  1  4  1  0  0  0  0
  1 24  1  0  0  0  0
  1 25  1  0  0  0  0
  2  4  1  0  0  0  0
  2  7  2  0  0  0  0
  3  6  2  0  0  0  0
  3  7  1  0  0  0  0
  4  5  2  0  0  0  0
  5  6  1  0  0  0  0
  5  9  1  0  0  0  0
  6 22  1  0  0  0  0
  7 27  1  0  0  0  0
  8 22  1  0  0  0  0
  8 23  2  0  0  0  0
  8 26  1  0  0  0  0
  9 10  1  0  0  0  0
 10 11  1  0  0  0  0
 11 22  1  0  0  0  0
 12 13  1  0  0  0  0
 12 14  1  0  0  0  0
 12 15  1  0  0  0  0
 12 24  1  0  0  0  0
 13 16  1  0  0  0  0
 13 17  1  0  0  0  0
 13 25  1  0  0  0  0
 18 21  1  0  0  0  0
 19 21  1  0  0  0  0
 20 21  1  0  0  0  0
 21 26  1  0  0  0  0
  2 28  1  0  0  0  0
  3 29  1  0  0  0  0
  9 30  1  0  0  0  0
  9 31  1  0  0  0  0
 10 32  1  0  0  0  0
 10 33  1  0  0  0  0
 11 34  1  0  0  0  0
 11 35  1  0  0  0  0
 14 36  1  0  0  0  0
 14 37  1  0  0  0  0
 14 38  1  0  0  0  0
 15 39  1  0  0  0  0
 15 40  1  0  0  0  0
 15 41  1  0  0  0  0
 16 42  1  0  0  0  0
 16 43  1  0  0  0  0
 16 44  1  0  0  0  0
 17 45  1  0  0  0  0
 17 46  1  0  0  0  0
 17 47  1  0  0  0  0
 18 48  1  0  0  0  0
 18 49  1  0  0  0  0
 18 50  1  0  0  0  0
 19 51  1  0  0  0  0
 19 52  1  0  0  0  0
 19 53  1  0  0  0  0
 20 54  1  0  0  0  0
 20 55  1  0  0  0  0
 20 56  1  0  0  0  0
M  END
> <id>
EN300-28301554

> <smiles>
CC(C)(C)OC(=O)N1CCCC=2C(=CC(F)=CC12)B3OC(C)(C)C(C)(C)O3

> <IUPAC Name>
tert-butyl 7-fluoro-5-(4,4,5,5-tetramethyl-1,3,2-dioxaborolan-2-yl)-1,2,3,4-tetrahydroquinoline-1-carboxylate

> <URL>
https://www.enaminestore.com/catalog/EN300-28301554

> <ROCS_ShapeQuery>
_x0404_0B

> <ROCS_TanimotoCombo>
0.449 

> <ROCS_ShapeTanimoto>
0.385 

> <ROCS_ColorTanimoto>
0.065 

> <ROCS_RefTversky>
0.340 

> <ROCS_RefColorTversky>
0.070 

> <ROCS_RefTverskyCombo>
0.410 

> <ROCS_FitTversky>
1.516 

> <ROCS_FitColorTversky>
0.481 

> <ROCS_FitTverskyCombo>
1.997 

> <ROCS_ColorScore>
-5.018

> <ROCS_Overlap>
2273.294

> <ROCS_Rank>
103                 

$$$$
untitled-dbase-117399_43
  -OEChem-08222312023D

 47 49  0     0  0  0  0  0  0999 V2000
   -8.9679    7.1598  -11.3190 C   0  0  0  0  0  0  0  0  0  0  0  0
   -8.8181    6.6556  -12.6146 C   0  0  0  0  0  0  0  0  0  0  0  0
   -8.9847    6.2998  -10.2116 C   0  0  0  0  0  0  0  0  0  0  0  0
   -8.7036    4.4300  -11.6720 C   0  0  0  0  0  0  0  0  0  0  0  0
   -8.6867    5.2845  -12.7763 C   0  0  0  0  0  0  0  0  0  0  0  0
   -8.8518    4.9220  -10.3844 C   0  0  0  0  0  0  0  0  0  0  0  0
   -8.4626    5.0356  -15.2504 C   0  0  0  0  0  0  0  0  0  0  0  0
   -8.5477    3.0001  -12.0785 C   0  0  0  0  0  0  0  0  0  0  0  0
   -8.4299    3.1075  -13.6027 C   0  0  0  0  0  0  0  0  0  0  0  0
   -7.9764    3.4358   -7.0688 C   0  0  0  0  0  0  0  0  0  0  0  0
   -9.4500    1.9273   -8.2082 C   0  0  0  0  0  0  0  0  0  0  0  0
   -8.3651    4.5864   -7.9965 C   0  0  0  0  0  0  0  0  0  0  0  0
   -9.8923    3.0217   -9.1793 C   0  0  0  0  0  0  0  0  0  0  0  0
   -7.4930    4.8244  -17.9360 C   0  0  0  0  0  0  0  0  0  0  0  0
   -9.5141    3.3940  -18.3583 C   0  0  0  0  0  0  0  0  0  0  0  0
   -9.8010    5.7931  -17.6727 C   0  0  0  0  0  0  0  0  0  0  0  0
   -8.9383    4.5401  -17.5295 C   0  0  0  0  0  0  0  0  0  0  0  0
   -9.0753    2.4845   -6.9096 N   0  0  0  0  0  0  0  0  0  0  0  0
   -8.5251    4.5364  -13.9573 N   0  0  0  0  0  0  0  0  0  0  0  0
   -8.8688    4.0682   -9.2757 N   0  0  0  0  0  0  0  0  0  0  0  0
   -8.0310    6.1378  -15.5762 O   0  0  0  0  0  0  0  0  0  0  0  0
   -8.9535    4.1304  -16.1572 O   0  0  0  0  0  0  0  0  0  0  0  0
   -9.0732    8.2308  -11.1673 H   0  0  0  0  0  0  0  0  0  0  0  0
   -8.8096    7.3464  -13.4486 H   0  0  0  0  0  0  0  0  0  0  0  0
   -9.1030    6.7219   -9.2165 H   0  0  0  0  0  0  0  0  0  0  0  0
   -7.6422    2.5651  -11.6446 H   0  0  0  0  0  0  0  0  0  0  0  0
   -9.4251    2.4125  -11.7924 H   0  0  0  0  0  0  0  0  0  0  0  0
   -7.4722    2.7158  -13.9647 H   0  0  0  0  0  0  0  0  0  0  0  0
   -9.2317    2.5609  -14.1121 H   0  0  0  0  0  0  0  0  0  0  0  0
   -7.0823    2.9257   -7.4490 H   0  0  0  0  0  0  0  0  0  0  0  0
   -7.7157    3.8426   -6.0854 H   0  0  0  0  0  0  0  0  0  0  0  0
  -10.2768    1.2229   -8.0652 H   0  0  0  0  0  0  0  0  0  0  0  0
   -8.6154    1.3553   -8.6327 H   0  0  0  0  0  0  0  0  0  0  0  0
   -9.1368    5.2094   -7.5190 H   0  0  0  0  0  0  0  0  0  0  0  0
   -7.4857    5.2251   -8.1622 H   0  0  0  0  0  0  0  0  0  0  0  0
  -10.0740    2.5716  -10.1657 H   0  0  0  0  0  0  0  0  0  0  0  0
  -10.8429    3.4615   -8.8405 H   0  0  0  0  0  0  0  0  0  0  0  0
   -7.0760    5.6465  -17.3434 H   0  0  0  0  0  0  0  0  0  0  0  0
   -6.8563    3.9434  -17.8048 H   0  0  0  0  0  0  0  0  0  0  0  0
   -7.4364    5.1393  -18.9843 H   0  0  0  0  0  0  0  0  0  0  0  0
  -10.5510    3.1866  -18.0699 H   0  0  0  0  0  0  0  0  0  0  0  0
   -8.9544    2.4676  -18.1852 H   0  0  0  0  0  0  0  0  0  0  0  0
   -9.4904    3.6184  -19.4295 H   0  0  0  0  0  0  0  0  0  0  0  0
  -10.8377    5.5894  -17.3812 H   0  0  0  0  0  0  0  0  0  0  0  0
   -9.4237    6.6152  -17.0559 H   0  0  0  0  0  0  0  0  0  0  0  0
   -9.8331    6.1269  -18.7161 H   0  0  0  0  0  0  0  0  0  0  0  0
   -8.7789    1.7294   -6.2918 H   0  0  0  0  0  0  0  0  0  0  0  0
  1  2  2  0  0  0  0
  1  3  1  0  0  0  0
  2  5  1  0  0  0  0
  3  6  2  0  0  0  0
  4  5  2  0  0  0  0
  4  6  1  0  0  0  0
  4  8  1  0  0  0  0
  5 19  1  0  0  0  0
  6 20  1  0  0  0  0
  7 19  1  0  0  0  0
  7 21  2  0  0  0  0
  7 22  1  0  0  0  0
  8  9  1  0  0  0  0
  9 19  1  0  0  0  0
 10 12  1  0  0  0  0
 10 18  1  0  0  0  0
 11 13  1  0  0  0  0
 11 18  1  0  0  0  0
 12 20  1  0  0  0  0
 13 20  1  0  0  0  0
 14 17  1  0  0  0  0
 15 17  1  0  0  0  0
 16 17  1  0  0  0  0
 17 22  1  0  0  0  0
  1 23  1  0  0  0  0
  2 24  1  0  0  0  0
  3 25  1  0  0  0  0
  8 26  1  0  0  0  0
  8 27  1  0  0  0  0
  9 28  1  0  0  0  0
  9 29  1  0  0  0  0
 10 30  1  0  0  0  0
 10 31  1  0  0  0  0
 11 32  1  0  0  0  0
 11 33  1  0  0  0  0
 12 34  1  0  0  0  0
 12 35  1  0  0  0  0
 13 36  1  0  0  0  0
 13 37  1  0  0  0  0
 14 38  1  0  0  0  0
 14 39  1  0  0  0  0
 14 40  1  0  0  0  0
 15 41  1  0  0  0  0
 15 42  1  0  0  0  0
 15 43  1  0  0  0  0
 16 44  1  0  0  0  0
 16 45  1  0  0  0  0
 16 46  1  0  0  0  0
 18 47  1  0  0  0  0
M  END
> <id>
EN300-37469450

> <smiles>
CC(C)(C)OC(=O)N1CCC=2C1=CC=CC2N3CCNCC3

> <IUPAC Name>
tert-butyl 4-(piperazin-1-yl)-2,3-dihydro-1H-indole-1-carboxylate

> <URL>
https://www.enaminestore.com/catalog/EN300-37469450

> <ROCS_ShapeQuery>
_x0404_0B

> <ROCS_TanimotoCombo>
0.449 

> <ROCS_ShapeTanimoto>
0.358 

> <ROCS_ColorTanimoto>
0.091 

> <ROCS_RefTversky>
0.315 

> <ROCS_RefColorTversky>
0.096 

> <ROCS_RefTverskyCombo>
0.410 

> <ROCS_FitTversky>
1.623 

> <ROCS_FitColorTversky>
0.662 

> <ROCS_FitTverskyCombo>
2.285 

> <ROCS_ColorScore>
-6.912

> <ROCS_Overlap>
2099.332

> <ROCS_Rank>
104                 

$$$$
untitled-dbase-6608_1410
  -OEChem-08222312023D

 46 47  0     1  0  0  0  0  0999 V2000
   -9.6485    4.5445  -17.1821 C   0  0  0  0  0  0  0  0  0  0  0  0
   -9.2222    4.3828  -15.8639 C   0  0  0  0  0  0  0  0  0  0  0  0
   -8.7858    5.0913  -18.1320 C   0  0  0  0  0  0  0  0  0  0  0  0
   -7.0704    5.3149  -16.4455 C   0  0  0  0  0  0  0  0  0  0  0  0
   -7.9331    4.7681  -15.4956 C   0  0  0  0  0  0  0  0  0  0  0  0
   -7.4968    5.4765  -17.7638 C   0  0  0  0  0  0  0  0  0  0  0  0
   -8.8581    4.5753   -9.9310 C   0  0  0  0  0  0  0  0  0  0  0  0
   -7.7198    5.8494  -13.1986 C   0  0  0  0  0  0  0  0  0  0  0  0
   -8.8222    5.6615  -12.1603 C   0  0  0  0  0  0  0  0  0  0  0  0
   -7.9710    3.3210  -11.9119 C   0  0  0  0  0  0  0  0  0  0  0  0
   -7.4678    4.5898  -14.0561 C   0  0  1  0  0  0  0  0  0  0  0  0
   -8.0873    3.3206  -13.4341 C   0  0  1  0  0  0  0  0  0  0  0  0
  -10.6992    4.2312   -7.7685 C   0  0  0  0  0  0  0  0  0  0  0  0
   -9.8311    1.8773   -7.6465 C   0  0  0  0  0  0  0  0  0  0  0  0
   -8.2775    3.8065   -7.2307 C   0  0  0  0  0  0  0  0  0  0  0  0
   -6.5746    6.0619  -18.7795 C   0  0  0  0  0  0  0  0  0  0  0  0
   -9.4964    3.3213   -8.0140 C   0  0  0  0  0  0  0  0  0  0  0  0
   -8.5594    4.5114  -11.2960 N   0  0  0  0  0  0  0  0  0  0  0  0
   -8.8319    5.6062   -9.2617 O   0  0  0  0  0  0  0  0  0  0  0  0
   -7.4314    2.1612  -13.9471 O   0  0  0  0  0  0  0  0  0  0  0  0
   -9.1815    3.3492   -9.4108 O   0  0  0  0  0  0  0  0  0  0  0  0
   -7.1249    6.1610  -20.0257 F   0  0  0  0  0  0  0  0  0  0  0  0
   -6.1557    7.3254  -18.4737 F   0  0  0  0  0  0  0  0  0  0  0  0
   -5.4356    5.3271  -18.9397 F   0  0  0  0  0  0  0  0  0  0  0  0
  -10.6523    4.2443  -17.4688 H   0  0  0  0  0  0  0  0  0  0  0  0
   -9.9012    3.9554  -15.1306 H   0  0  0  0  0  0  0  0  0  0  0  0
   -9.1267    5.2142  -19.1566 H   0  0  0  0  0  0  0  0  0  0  0  0
   -6.0650    5.6146  -16.1592 H   0  0  0  0  0  0  0  0  0  0  0  0
   -7.9834    6.7029  -13.8506 H   0  0  0  0  0  0  0  0  0  0  0  0
   -6.7857    6.1458  -12.6891 H   0  0  0  0  0  0  0  0  0  0  0  0
   -8.8931    6.5468  -11.5119 H   0  0  0  0  0  0  0  0  0  0  0  0
   -9.7922    5.5546  -12.6638 H   0  0  0  0  0  0  0  0  0  0  0  0
   -8.4120    2.3952  -11.5085 H   0  0  0  0  0  0  0  0  0  0  0  0
   -6.9102    3.2871  -11.6057 H   0  0  0  0  0  0  0  0  0  0  0  0
   -6.3549    4.4221  -14.1324 H   0  0  0  0  0  0  0  0  0  0  0  0
   -9.1579    3.2437  -13.7162 H   0  0  0  0  0  0  0  0  0  0  0  0
  -10.4631    5.2686   -8.0311 H   0  0  0  0  0  0  0  0  0  0  0  0
  -11.5702    3.9145   -8.3516 H   0  0  0  0  0  0  0  0  0  0  0  0
  -10.9759    4.2360   -6.7080 H   0  0  0  0  0  0  0  0  0  0  0  0
   -8.9709    1.2210   -7.8210 H   0  0  0  0  0  0  0  0  0  0  0  0
  -10.6443    1.4935   -8.2731 H   0  0  0  0  0  0  0  0  0  0  0  0
  -10.1294    1.7862   -6.5971 H   0  0  0  0  0  0  0  0  0  0  0  0
   -7.4146    3.1540   -7.4066 H   0  0  0  0  0  0  0  0  0  0  0  0
   -8.0002    4.8285   -7.5084 H   0  0  0  0  0  0  0  0  0  0  0  0
   -8.4711    3.7790   -6.1522 H   0  0  0  0  0  0  0  0  0  0  0  0
   -7.5265    2.1967  -14.9109 H   0  0  0  0  0  0  0  0  0  0  0  0
  1  2  1  0  0  0  0
  1  3  2  0  0  0  0
  2  5  2  0  0  0  0
  3  6  1  0  0  0  0
  4  5  1  0  0  0  0
  4  6  2  0  0  0  0
  5 11  1  0  0  0  0
  6 16  1  0  0  0  0
  7 18  1  0  0  0  0
  7 19  2  0  0  0  0
  7 21  1  0  0  0  0
  8  9  1  0  0  0  0
  8 11  1  0  0  0  0
  9 18  1  0  0  0  0
 10 12  1  0  0  0  0
 10 18  1  0  0  0  0
 11 12  1  0  0  0  0
 12 20  1  0  0  0  0
 13 17  1  0  0  0  0
 14 17  1  0  0  0  0
 15 17  1  0  0  0  0
 16 22  1  0  0  0  0
 16 23  1  0  0  0  0
 16 24  1  0  0  0  0
 17 21  1  0  0  0  0
  1 25  1  0  0  0  0
  2 26  1  0  0  0  0
  3 27  1  0  0  0  0
  4 28  1  0  0  0  0
  8 29  1  0  0  0  0
  8 30  1  0  0  0  0
  9 31  1  0  0  0  0
  9 32  1  0  0  0  0
 10 33  1  0  0  0  0
 10 34  1  0  0  0  0
 11 35  1  0  0  0  0
 12 36  1  0  0  0  0
 13 37  1  0  0  0  0
 13 38  1  0  0  0  0
 13 39  1  0  0  0  0
 14 40  1  0  0  0  0
 14 41  1  0  0  0  0
 14 42  1  0  0  0  0
 15 43  1  0  0  0  0
 15 44  1  0  0  0  0
 15 45  1  0  0  0  0
 20 46  1  0  0  0  0
M  END
> <id>
EN300-94524

> <smiles>
CC(C)(C)OC(=O)N1CCC(C(O)C1)C=2C=CC=C(C2)C(F)(F)F

> <MDLNUMBER>
MFCD08461338

> <IUPAC Name>
tert-butyl 3-hydroxy-4-[3-(trifluoromethyl)phenyl]piperidine-1-carboxylate

> <CAS>
1187173-60-9

> <URL>
https://www.enaminestore.com/catalog/EN300-94524

> <ROCS_ShapeQuery>
_x0404_0B

> <ROCS_TanimotoCombo>
0.449 

> <ROCS_ShapeTanimoto>
0.359 

> <ROCS_ColorTanimoto>
0.090 

> <ROCS_RefTversky>
0.318 

> <ROCS_RefColorTversky>
0.094 

> <ROCS_RefTverskyCombo>
0.412 

> <ROCS_FitTversky>
1.558 

> <ROCS_FitColorTversky>
0.714 

> <ROCS_FitTverskyCombo>
2.272 

> <ROCS_ColorScore>
-6.767

> <ROCS_Overlap>
2122.212

> <ROCS_Rank>
105                 

$$$$
untitled-dbase-103823_7
  -OEChem-08222312023D

 48 52  0     1  0  0  0  0  0999 V2000
   -8.5231    3.9650   -9.5377 C   0  0  0  0  0  0  0  0  0  0  0  0
   -8.7658    4.7181  -10.6804 C   0  0  0  0  0  0  0  0  0  0  0  0
   -9.0049    6.0798  -10.5249 C   0  0  0  0  0  0  0  0  0  0  0  0
   -8.5572    4.6036   -8.3157 C   0  0  0  0  0  0  0  0  0  0  0  0
   -8.7257    6.9920  -14.1801 C   0  0  0  0  0  0  0  0  0  0  0  0
   -8.7138    4.0887  -12.0426 C   0  0  0  0  0  0  0  0  0  0  0  0
   -9.2649    6.9755  -11.7052 C   0  0  0  0  0  0  0  0  0  0  0  0
   -6.9701    5.0976  -17.6468 C   0  0  0  0  0  0  0  0  0  0  0  0
   -7.5127    5.0763  -15.1986 C   0  0  0  0  0  0  0  0  0  0  0  0
   -8.1988    7.0286  -16.6223 C   0  0  0  0  0  0  0  0  0  0  0  0
   -8.7050    3.5180  -16.7599 C   0  0  0  0  0  0  0  0  0  0  0  0
   -9.3914    5.4714  -18.1844 C   0  0  0  0  0  0  0  0  0  0  0  0
   -9.9385    5.4515  -15.7309 C   0  0  0  0  0  0  0  0  0  0  0  0
   -9.4755    4.9134  -13.0746 C   0  0  0  0  0  0  0  0  0  0  0  0
   -7.3625    4.2060  -16.4573 C   0  0  1  0  0  0  0  0  0  0  0  0
   -8.0508    6.1648  -17.8856 C   0  0  2  0  0  0  0  0  0  0  0  0
   -8.5978    6.1468  -15.4234 C   0  0  0  0  0  0  0  0  0  0  0  0
   -9.8120    4.5721  -16.9978 C   0  0  0  0  0  0  0  0  0  0  0  0
  -11.1451    3.8828  -17.3010 C   0  0  0  0  0  0  0  0  0  0  0  0
   -9.0328    6.6660   -9.3045 N   0  0  0  0  0  0  0  0  0  0  0  0
   -8.8074    5.9207   -8.1870 N   0  0  0  0  0  0  0  0  0  0  0  0
   -9.0865    6.3222  -13.0088 N   0  0  0  0  0  0  0  0  0  0  0  0
   -8.5170    8.2056  -14.2495 O   0  0  0  0  0  0  0  0  0  0  0  0
   -8.2827    3.7631   -6.8498 Cl  0  0  0  0  0  0  0  0  0  0  0  0
   -8.3107    2.9026   -9.6102 H   0  0  0  0  0  0  0  0  0  0  0  0
   -7.6723    3.9885  -12.3702 H   0  0  0  0  0  0  0  0  0  0  0  0
   -9.1440    3.0817  -11.9807 H   0  0  0  0  0  0  0  0  0  0  0  0
  -10.2781    7.3765  -11.6196 H   0  0  0  0  0  0  0  0  0  0  0  0
   -8.5623    7.8166  -11.6751 H   0  0  0  0  0  0  0  0  0  0  0  0
   -6.0046    5.5799  -17.4506 H   0  0  0  0  0  0  0  0  0  0  0  0
   -6.8428    4.4852  -18.5479 H   0  0  0  0  0  0  0  0  0  0  0  0
   -7.7696    4.4463  -14.3367 H   0  0  0  0  0  0  0  0  0  0  0  0
   -6.5526    5.5505  -14.9556 H   0  0  0  0  0  0  0  0  0  0  0  0
   -7.2551    7.5510  -16.4170 H   0  0  0  0  0  0  0  0  0  0  0  0
   -8.9518    7.8103  -16.7884 H   0  0  0  0  0  0  0  0  0  0  0  0
   -8.5978    2.8746  -17.6428 H   0  0  0  0  0  0  0  0  0  0  0  0
   -8.9792    2.8619  -15.9237 H   0  0  0  0  0  0  0  0  0  0  0  0
  -10.1623    6.2283  -18.3784 H   0  0  0  0  0  0  0  0  0  0  0  0
   -9.3003    4.8730  -19.1000 H   0  0  0  0  0  0  0  0  0  0  0  0
  -10.2501    4.8364  -14.8755 H   0  0  0  0  0  0  0  0  0  0  0  0
  -10.7286    6.2027  -15.8675 H   0  0  0  0  0  0  0  0  0  0  0  0
   -9.2481    4.5668  -14.0907 H   0  0  0  0  0  0  0  0  0  0  0  0
  -10.5532    4.7927  -12.9247 H   0  0  0  0  0  0  0  0  0  0  0  0
   -6.5883    3.4484  -16.2924 H   0  0  0  0  0  0  0  0  0  0  0  0
   -7.7650    6.7968  -18.7338 H   0  0  0  0  0  0  0  0  0  0  0  0
  -11.9149    4.6329  -17.4664 H   0  0  0  0  0  0  0  0  0  0  0  0
  -11.4304    3.2538  -16.4611 H   0  0  0  0  0  0  0  0  0  0  0  0
  -11.0441    3.2683  -18.1927 H   0  0  0  0  0  0  0  0  0  0  0  0
  1  2  2  0  0  0  0
  1  4  1  0  0  0  0
  2  3  1  0  0  0  0
  2  6  1  0  0  0  0
  3  7  1  0  0  0  0
  3 20  2  0  0  0  0
  4 21  2  0  0  0  0
  4 24  1  0  0  0  0
  5 17  1  0  0  0  0
  5 22  1  0  0  0  0
  5 23  2  0  0  0  0
  6 14  1  0  0  0  0
  7 22  1  0  0  0  0
  8 15  1  0  0  0  0
  8 16  1  0  0  0  0
  9 15  1  0  0  0  0
  9 17  1  0  0  0  0
 10 16  1  0  0  0  0
 10 17  1  0  0  0  0
 11 15  1  0  0  0  0
 11 18  1  0  0  0  0
 12 16  1  0  0  0  0
 12 18  1  0  0  0  0
 13 17  1  0  0  0  0
 13 18  1  0  0  0  0
 14 22  1  0  0  0  0
 18 19  1  0  0  0  0
 20 21  1  0  0  0  0
  1 25  1  0  0  0  0
  6 26  1  0  0  0  0
  6 27  1  0  0  0  0
  7 28  1  0  0  0  0
  7 29  1  0  0  0  0
  8 30  1  0  0  0  0
  8 31  1  0  0  0  0
  9 32  1  0  0  0  0
  9 33  1  0  0  0  0
 10 34  1  0  0  0  0
 10 35  1  0  0  0  0
 11 36  1  0  0  0  0
 11 37  1  0  0  0  0
 12 38  1  0  0  0  0
 12 39  1  0  0  0  0
 13 40  1  0  0  0  0
 13 41  1  0  0  0  0
 14 42  1  0  0  0  0
 14 43  1  0  0  0  0
 15 44  1  0  0  0  0
 16 45  1  0  0  0  0
 19 46  1  0  0  0  0
 19 47  1  0  0  0  0
 19 48  1  0  0  0  0
M  END
> <id>
EN300-26610984

> <smiles>
CC1(CC2CC3C1)CC(C2)(C3)C(=O)N4CCC=5C=C(Cl)N=NC5C4

> <IUPAC Name>
3-chloro-7-(3-methyladamantane-1-carbonyl)-5H,6H,7H,8H-pyrido[3,4-c]pyridazine

> <CAS>
2411302-50-4

> <URL>
https://www.enaminestore.com/catalog/EN300-26610984

> <ROCS_ShapeQuery>
_x0404_0B

> <ROCS_TanimotoCombo>
0.449 

> <ROCS_ShapeTanimoto>
0.360 

> <ROCS_ColorTanimoto>
0.089 

> <ROCS_RefTversky>
0.320 

> <ROCS_RefColorTversky>
0.099 

> <ROCS_RefTverskyCombo>
0.419 

> <ROCS_FitTversky>
1.527 

> <ROCS_FitColorTversky>
0.479 

> <ROCS_FitTverskyCombo>
2.006 

> <ROCS_ColorScore>
-7.172

> <ROCS_Overlap>
2136.573

> <ROCS_Rank>
106                 

$$$$
untitled-dbase-48508_762
  -OEChem-08222312023D

 57 59  0     0  0  0  0  0  0999 V2000
   -8.8511    5.0720  -16.3802 B   0  0  0  0  0  0  0  0  0  0  0  0
   -8.8208    6.8439  -14.5364 C   0  0  0  0  0  0  0  0  0  0  0  0
   -8.8634    7.2232  -13.1971 C   0  0  0  0  0  0  0  0  0  0  0  0
   -9.0083    4.5225  -13.8840 C   0  0  0  0  0  0  0  0  0  0  0  0
   -8.8919    5.4952  -14.8798 C   0  0  0  0  0  0  0  0  0  0  0  0
   -9.0378    4.8833  -12.5291 C   0  0  0  0  0  0  0  0  0  0  0  0
   -8.9575    6.2461  -12.2039 C   0  0  0  0  0  0  0  0  0  0  0  0
   -8.9348    3.3725   -9.0227 C   0  0  0  0  0  0  0  0  0  0  0  0
   -9.2232    3.8086  -11.4836 C   0  0  0  0  0  0  0  0  0  0  0  0
   -7.3993    4.9377  -10.1699 C   0  0  0  0  0  0  0  0  0  0  0  0
   -7.8486    6.3985  -10.1598 C   0  0  0  0  0  0  0  0  0  0  0  0
   -8.1964    4.9797  -18.5655 C   0  0  0  0  0  0  0  0  0  0  0  0
   -9.3932    3.9989  -18.3212 C   0  0  0  0  0  0  0  0  0  0  0  0
   -6.9901    4.3528  -19.2790 C   0  0  0  0  0  0  0  0  0  0  0  0
   -8.5656    6.2808  -19.3133 C   0  0  0  0  0  0  0  0  0  0  0  0
   -9.0053    2.5041  -18.2584 C   0  0  0  0  0  0  0  0  0  0  0  0
  -10.5526    4.1428  -19.3172 C   0  0  0  0  0  0  0  0  0  0  0  0
   -8.2924    2.2206   -6.4837 C   0  0  0  0  0  0  0  0  0  0  0  0
   -8.7155    4.5114   -5.5443 C   0  0  0  0  0  0  0  0  0  0  0  0
  -10.5767    3.2599   -6.6748 C   0  0  0  0  0  0  0  0  0  0  0  0
   -9.0718    3.5239   -6.6534 C   0  0  0  0  0  0  0  0  0  0  0  0
   -8.5437    4.0299  -10.1957 N   0  0  0  0  0  0  0  0  0  0  0  0
   -9.4408    2.2523   -8.9906 O   0  0  0  0  0  0  0  0  0  0  0  0
   -7.7766    5.3653  -17.2160 O   0  0  0  0  0  0  0  0  0  0  0  0
   -9.8863    4.3699  -16.9925 O   0  0  0  0  0  0  0  0  0  0  0  0
   -9.0450    6.6658  -10.9038 O   0  0  0  0  0  0  0  0  0  0  0  0
   -8.6958    4.1208   -7.8997 O   0  0  0  0  0  0  0  0  0  0  0  0
   -8.7337    7.6211  -15.2930 H   0  0  0  0  0  0  0  0  0  0  0  0
   -8.8140    8.2754  -12.9333 H   0  0  0  0  0  0  0  0  0  0  0  0
   -9.0855    3.4679  -14.1492 H   0  0  0  0  0  0  0  0  0  0  0  0
  -10.3117    3.6752  -11.2820 H   0  0  0  0  0  0  0  0  0  0  0  0
   -8.9080    2.8212  -11.8919 H   0  0  0  0  0  0  0  0  0  0  0  0
   -6.7665    4.7613  -11.0470 H   0  0  0  0  0  0  0  0  0  0  0  0
   -6.8077    4.7057   -9.2757 H   0  0  0  0  0  0  0  0  0  0  0  0
   -8.0736    6.6837   -9.1128 H   0  0  0  0  0  0  0  0  0  0  0  0
   -7.0228    7.0821  -10.4636 H   0  0  0  0  0  0  0  0  0  0  0  0
   -6.2226    5.1070  -19.3995 H   0  0  0  0  0  0  0  0  0  0  0  0
   -7.3063    3.9877  -20.2481 H   0  0  0  0  0  0  0  0  0  0  0  0
   -6.6140    3.5337  -18.6788 H   0  0  0  0  0  0  0  0  0  0  0  0
   -7.6762    6.8924  -19.4347 H   0  0  0  0  0  0  0  0  0  0  0  0
   -9.3073    6.8289  -18.7396 H   0  0  0  0  0  0  0  0  0  0  0  0
   -8.9719    6.0333  -20.2896 H   0  0  0  0  0  0  0  0  0  0  0  0
   -9.8961    1.9067  -18.0869 H   0  0  0  0  0  0  0  0  0  0  0  0
   -8.3015    2.3474  -17.4462 H   0  0  0  0  0  0  0  0  0  0  0  0
   -8.5466    2.2103  -19.1980 H   0  0  0  0  0  0  0  0  0  0  0  0
  -11.3237    3.4260  -19.0641 H   0  0  0  0  0  0  0  0  0  0  0  0
  -10.1825    3.9516  -20.3165 H   0  0  0  0  0  0  0  0  0  0  0  0
  -10.9468    5.1493  -19.2538 H   0  0  0  0  0  0  0  0  0  0  0  0
   -8.5454    1.5091   -7.2779 H   0  0  0  0  0  0  0  0  0  0  0  0
   -7.2112    2.3919   -6.5018 H   0  0  0  0  0  0  0  0  0  0  0  0
   -8.5496    1.7315   -5.5372 H   0  0  0  0  0  0  0  0  0  0  0  0
   -9.2724    5.4479   -5.6621 H   0  0  0  0  0  0  0  0  0  0  0  0
   -7.6529    4.7769   -5.5847 H   0  0  0  0  0  0  0  0  0  0  0  0
   -8.9329    4.1011   -4.5528 H   0  0  0  0  0  0  0  0  0  0  0  0
  -11.1360    4.1946   -6.7965 H   0  0  0  0  0  0  0  0  0  0  0  0
  -10.8557    2.5819   -7.4879 H   0  0  0  0  0  0  0  0  0  0  0  0
  -10.9090    2.8219   -5.7266 H   0  0  0  0  0  0  0  0  0  0  0  0
  1  5  1  0  0  0  0
  1 24  1  0  0  0  0
  1 25  1  0  0  0  0
  2  3  1  0  0  0  0
  2  5  2  0  0  0  0
  3  7  2  0  0  0  0
  4  5  1  0  0  0  0
  4  6  2  0  0  0  0
  6  7  1  0  0  0  0
  6  9  1  0  0  0  0
  7 26  1  0  0  0  0
  8 22  1  0  0  0  0
  8 23  2  0  0  0  0
  8 27  1  0  0  0  0
  9 22  1  0  0  0  0
 10 11  1  0  0  0  0
 10 22  1  0  0  0  0
 11 26  1  0  0  0  0
 12 13  1  0  0  0  0
 12 14  1  0  0  0  0
 12 15  1  0  0  0  0
 12 24  1  0  0  0  0
 13 16  1  0  0  0  0
 13 17  1  0  0  0  0
 13 25  1  0  0  0  0
 18 21  1  0  0  0  0
 19 21  1  0  0  0  0
 20 21  1  0  0  0  0
 21 27  1  0  0  0  0
  2 28  1  0  0  0  0
  3 29  1  0  0  0  0
  4 30  1  0  0  0  0
  9 31  1  0  0  0  0
  9 32  1  0  0  0  0
 10 33  1  0  0  0  0
 10 34  1  0  0  0  0
 11 35  1  0  0  0  0
 11 36  1  0  0  0  0
 14 37  1  0  0  0  0
 14 38  1  0  0  0  0
 14 39  1  0  0  0  0
 15 40  1  0  0  0  0
 15 41  1  0  0  0  0
 15 42  1  0  0  0  0
 16 43  1  0  0  0  0
 16 44  1  0  0  0  0
 16 45  1  0  0  0  0
 17 46  1  0  0  0  0
 17 47  1  0  0  0  0
 17 48  1  0  0  0  0
 18 49  1  0  0  0  0
 18 50  1  0  0  0  0
 18 51  1  0  0  0  0
 19 52  1  0  0  0  0
 19 53  1  0  0  0  0
 19 54  1  0  0  0  0
 20 55  1  0  0  0  0
 20 56  1  0  0  0  0
 20 57  1  0  0  0  0
M  END
> <id>
EN300-295264

> <smiles>
CC(C)(C)OC(=O)N1CCOC=2C=CC(=CC2C1)B3OC(C)(C)C(C)(C)O3

> <MDLNUMBER>
MFCD14582651

> <IUPAC Name>
tert-butyl 7-(tetramethyl-1,3,2-dioxaborolan-2-yl)-2,3,4,5-tetrahydro-1,4-benzoxazepine-4-carboxylate

> <CAS>
1256784-52-7

> <Purity>
95

> <URL>
https://www.enaminestore.com/catalog/EN300-295264

> <ROCS_ShapeQuery>
_x0404_0B

> <ROCS_TanimotoCombo>
0.449 

> <ROCS_ShapeTanimoto>
0.397 

> <ROCS_ColorTanimoto>
0.052 

> <ROCS_RefTversky>
0.348 

> <ROCS_RefColorTversky>
0.057 

> <ROCS_RefTverskyCombo>
0.405 

> <ROCS_FitTversky>
1.552 

> <ROCS_FitColorTversky>
0.362 

> <ROCS_FitTverskyCombo>
1.914 

> <ROCS_ColorScore>
-4.122

> <ROCS_Overlap>
2325.292

> <ROCS_Rank>
107                 

$$$$
untitled-dbase-102792_334
  -OEChem-08222312023D

 34 36  0     0  0  0  0  0  0999 V2000
   -8.7581    6.7323  -10.8581 C   0  0  0  0  0  0  0  0  0  0  0  0
   -8.8430    6.3922  -12.2113 C   0  0  0  0  0  0  0  0  0  0  0  0
   -9.1188    4.0253  -11.6695 C   0  0  0  0  0  0  0  0  0  0  0  0
   -8.8566    5.7032   -9.9450 C   0  0  0  0  0  0  0  0  0  0  0  0
   -9.0324    4.3839  -10.3404 C   0  0  0  0  0  0  0  0  0  0  0  0
   -9.0216    5.0522  -12.6130 C   0  0  0  0  0  0  0  0  0  0  0  0
   -8.8078    5.7340   -8.4835 C   0  0  0  0  0  0  0  0  0  0  0  0
   -9.0973    3.5562   -9.1363 C   0  0  0  0  0  0  0  0  0  0  0  0
   -8.4903    5.4065  -15.0576 C   0  0  0  0  0  0  0  0  0  0  0  0
   -7.0252    4.9168  -16.9996 C   0  0  0  0  0  0  0  0  0  0  0  0
   -8.9792    3.4177  -16.6025 C   0  0  0  0  0  0  0  0  0  0  0  0
   -7.3571    5.8143  -18.1906 C   0  0  0  0  0  0  0  0  0  0  0  0
  -10.2994    3.7688  -17.2930 C   0  0  0  0  0  0  0  0  0  0  0  0
   -8.9569    4.4274   -8.0819 N   0  0  0  0  0  0  0  0  0  0  0  0
   -8.1842    4.5759  -16.1647 N   0  0  0  0  0  0  0  0  0  0  0  0
   -9.1044    4.7436  -13.9942 N   0  0  0  0  0  0  0  0  0  0  0  0
   -8.6635    6.7380   -7.8127 O   0  0  0  0  0  0  0  0  0  0  0  0
   -9.2468    2.3494   -9.1278 O   0  0  0  0  0  0  0  0  0  0  0  0
   -8.2252    6.6110  -15.0652 O   0  0  0  0  0  0  0  0  0  0  0  0
   -8.4912    5.0545  -19.3973 S   0  0  0  0  0  0  0  0  0  0  0  0
  -10.2938    5.2000  -18.4255 S   0  0  0  0  0  0  0  0  0  0  0  0
   -8.6213    7.7620  -10.5496 H   0  0  0  0  0  0  0  0  0  0  0  0
   -8.7683    7.1794  -12.9587 H   0  0  0  0  0  0  0  0  0  0  0  0
   -9.2557    2.9918  -11.9678 H   0  0  0  0  0  0  0  0  0  0  0  0
   -6.5357    3.9911  -17.3252 H   0  0  0  0  0  0  0  0  0  0  0  0
   -6.2904    5.4413  -16.3769 H   0  0  0  0  0  0  0  0  0  0  0  0
   -9.1816    2.7819  -15.7331 H   0  0  0  0  0  0  0  0  0  0  0  0
   -8.3664    2.8010  -17.2709 H   0  0  0  0  0  0  0  0  0  0  0  0
   -7.7585    6.7789  -17.8604 H   0  0  0  0  0  0  0  0  0  0  0  0
   -6.4272    6.0326  -18.7273 H   0  0  0  0  0  0  0  0  0  0  0  0
  -10.6530    2.8968  -17.8547 H   0  0  0  0  0  0  0  0  0  0  0  0
  -11.0678    3.9760  -16.5412 H   0  0  0  0  0  0  0  0  0  0  0  0
   -8.9626    4.1370   -7.1105 H   0  0  0  0  0  0  0  0  0  0  0  0
   -9.7071    3.8956  -14.1951 H   0  0  0  0  0  0  0  0  0  0  0  0
  1  2  1  0  0  0  0
  1  4  2  0  0  0  0
  2  6  2  0  0  0  0
  3  5  2  0  0  0  0
  3  6  1  0  0  0  0
  4  5  1  0  0  0  0
  4  7  1  0  0  0  0
  5  8  1  0  0  0  0
  6 16  1  0  0  0  0
  7 14  1  0  0  0  0
  7 17  2  0  0  0  0
  8 14  1  0  0  0  0
  8 18  2  0  0  0  0
  9 15  1  0  0  0  0
  9 16  1  0  0  0  0
  9 19  2  0  0  0  0
 10 12  1  0  0  0  0
 10 15  1  0  0  0  0
 11 13  1  0  0  0  0
 11 15  1  0  0  0  0
 12 20  1  0  0  0  0
 13 21  1  0  0  0  0
 20 21  1  0  0  0  0
  1 22  1  0  0  0  0
  2 23  1  0  0  0  0
  3 24  1  0  0  0  0
 10 25  1  0  0  0  0
 10 26  1  0  0  0  0
 11 27  1  0  0  0  0
 11 28  1  0  0  0  0
 12 29  1  0  0  0  0
 12 30  1  0  0  0  0
 13 31  1  0  0  0  0
 13 32  1  0  0  0  0
 14 33  1  0  0  0  0
 16 34  1  0  0  0  0
M  END
> <id>
EN300-26597559

> <smiles>
O=C(NC=1C=CC=2C(=O)NC(=O)C2C1)N3CCSSCC3

> <IUPAC Name>
N-(1,3-dioxo-2,3-dihydro-1H-isoindol-5-yl)-1,2,5-dithiazepane-5-carboxamide

> <CAS>
1428019-88-8

> <URL>
https://www.enaminestore.com/catalog/EN300-26597559

> <ROCS_ShapeQuery>
_x0404_0B

> <ROCS_TanimotoCombo>
0.449 

> <ROCS_ShapeTanimoto>
0.354 

> <ROCS_ColorTanimoto>
0.094 

> <ROCS_RefTversky>
0.310 

> <ROCS_RefColorTversky>
0.100 

> <ROCS_RefTverskyCombo>
0.410 

> <ROCS_FitTversky>
1.678 

> <ROCS_FitColorTversky>
0.632 

> <ROCS_FitTverskyCombo>
2.310 

> <ROCS_ColorScore>
-7.201

> <ROCS_Overlap>
2067.770

> <ROCS_Rank>
108                 

$$$$
untitled-dbase-180727_2
  -OEChem-08222312023D

 31 34  0     0  0  0  0  0  0999 V2000
   -8.4632    6.7233  -16.6054 C   0  0  0  0  0  0  0  0  0  0  0  0
   -8.5827    3.9815  -16.0617 C   0  0  0  0  0  0  0  0  0  0  0  0
   -9.1599    2.3136   -7.7226 C   0  0  0  0  0  0  0  0  0  0  0  0
   -8.5594    6.2683  -15.2876 C   0  0  0  0  0  0  0  0  0  0  0  0
   -8.6200    4.8978  -15.0071 C   0  0  0  0  0  0  0  0  0  0  0  0
   -8.4270    5.7996  -17.6498 C   0  0  0  0  0  0  0  0  0  0  0  0
   -8.4864    4.4323  -17.3792 C   0  0  0  0  0  0  0  0  0  0  0  0
   -9.0436    4.2346   -8.6075 C   0  0  0  0  0  0  0  0  0  0  0  0
   -9.0065    3.3380   -9.6449 C   0  0  0  0  0  0  0  0  0  0  0  0
   -8.9106    3.6467  -11.0100 C   0  0  0  0  0  0  0  0  0  0  0  0
   -8.6002    7.2208  -14.1448 C   0  0  0  0  0  0  0  0  0  0  0  0
   -8.9812    5.6533   -8.8840 C   0  0  0  0  0  0  0  0  0  0  0  0
   -8.8529    4.9699  -11.2620 C   0  0  0  0  0  0  0  0  0  0  0  0
   -8.7497    5.4249  -12.6703 C   0  0  0  0  0  0  0  0  0  0  0  0
   -9.1395    3.5960   -7.4053 N   0  0  0  0  0  0  0  0  0  0  0  0
   -8.6969    6.7186  -12.8594 N   0  0  0  0  0  0  0  0  0  0  0  0
   -9.0809    2.1053   -9.0812 N   0  0  0  0  0  0  0  0  0  0  0  0
   -8.7161    4.4839  -13.6770 N   0  0  0  0  0  0  0  0  0  0  0  0
   -8.8856    5.9378  -10.2590 N   0  0  0  0  0  0  0  0  0  0  0  0
   -8.5467    8.4234  -14.3828 O   0  0  0  0  0  0  0  0  0  0  0  0
   -9.0096    6.5045   -8.0019 O   0  0  0  0  0  0  0  0  0  0  0  0
   -8.3328    6.2343  -18.9366 O   0  0  0  0  0  0  0  0  0  0  0  0
   -8.4510    3.5442  -18.3824 F   0  0  0  0  0  0  0  0  0  0  0  0
   -8.4159    7.7853  -16.8306 H   0  0  0  0  0  0  0  0  0  0  0  0
   -8.6282    2.9132  -15.8664 H   0  0  0  0  0  0  0  0  0  0  0  0
   -9.2300    1.4895   -7.0269 H   0  0  0  0  0  0  0  0  0  0  0  0
   -8.8862    2.8805  -11.7751 H   0  0  0  0  0  0  0  0  0  0  0  0
   -9.0790    1.2098   -9.5526 H   0  0  0  0  0  0  0  0  0  0  0  0
   -8.7596    3.4901  -13.4835 H   0  0  0  0  0  0  0  0  0  0  0  0
   -8.8372    6.9133  -10.5394 H   0  0  0  0  0  0  0  0  0  0  0  0
   -8.3185    5.4794  -19.5460 H   0  0  0  0  0  0  0  0  0  0  0  0
  1  4  1  0  0  0  0
  1  6  2  0  0  0  0
  2  5  1  0  0  0  0
  2  7  2  0  0  0  0
  3 15  2  0  0  0  0
  3 17  1  0  0  0  0
  4  5  2  0  0  0  0
  4 11  1  0  0  0  0
  5 18  1  0  0  0  0
  6  7  1  0  0  0  0
  6 22  1  0  0  0  0
  7 23  1  0  0  0  0
  8  9  2  0  0  0  0
  8 12  1  0  0  0  0
  8 15  1  0  0  0  0
  9 10  1  0  0  0  0
  9 17  1  0  0  0  0
 10 13  2  0  0  0  0
 11 16  1  0  0  0  0
 11 20  2  0  0  0  0
 12 19  1  0  0  0  0
 12 21  2  0  0  0  0
 13 14  1  0  0  0  0
 13 19  1  0  0  0  0
 14 16  2  0  0  0  0
 14 18  1  0  0  0  0
  1 24  1  0  0  0  0
  2 25  1  0  0  0  0
  3 26  1  0  0  0  0
 10 27  1  0  0  0  0
 17 28  1  0  0  0  0
 18 29  1  0  0  0  0
 19 30  1  0  0  0  0
 22 31  1  0  0  0  0
M  END
> <id>
EN300-39855650

> <smiles>
Cl.OC=1C=C2C(=O)N=C(NC2=CC1F)C3=CC=4NC=NC4C(=O)N3

> <IUPAC Name>
7-fluoro-6-hydroxy-2-{4-oxo-1H,4H,5H-imidazo[4,5-c]pyridin-6-yl}-1,4-dihydroquinazolin-4-one hydrochloride

> <Purity>
95

> <URL>
https://www.enaminestore.com/catalog/EN300-39855650

> <Saltdate>
Cl

> <ROCS_ShapeQuery>
_x0404_0B

> <ROCS_TanimotoCombo>
0.448 

> <ROCS_ShapeTanimoto>
0.368 

> <ROCS_ColorTanimoto>
0.080 

> <ROCS_RefTversky>
0.325 

> <ROCS_RefColorTversky>
0.093 

> <ROCS_RefTverskyCombo>
0.419 

> <ROCS_FitTversky>
1.550 

> <ROCS_FitColorTversky>
0.374 

> <ROCS_FitTverskyCombo>
1.924 

> <ROCS_ColorScore>
-6.752

> <ROCS_Overlap>
2174.409

> <ROCS_Rank>
109                 

$$$$
untitled-dbase-99122_0
  -OEChem-08222312023D

 35 38  0     0  0  0  0  0  0999 V2000
   -8.5434    6.2913  -11.9088 C   0  0  0  0  0  0  0  0  0  0  0  0
   -8.7258    6.2450  -10.5246 C   0  0  0  0  0  0  0  0  0  0  0  0
   -8.7241    3.8806  -12.0337 C   0  0  0  0  0  0  0  0  0  0  0  0
   -9.7498    4.4465  -17.2669 C   0  0  0  0  0  0  0  0  0  0  0  0
   -8.5426    5.1130  -12.6607 C   0  0  0  0  0  0  0  0  0  0  0  0
   -8.9074    5.0114   -9.8982 C   0  0  0  0  0  0  0  0  0  0  0  0
   -8.9051    3.8466  -10.6533 C   0  0  0  0  0  0  0  0  0  0  0  0
   -9.0481    4.7799  -18.3995 C   0  0  0  0  0  0  0  0  0  0  0  0
   -7.8130    5.3968  -16.7647 C   0  0  0  0  0  0  0  0  0  0  0  0
   -9.0990    2.5829   -9.9533 C   0  0  0  0  0  0  0  0  0  0  0  0
   -7.0592    5.7798  -14.5511 C   0  0  0  0  0  0  0  0  0  0  0  0
   -8.3523    5.1734  -14.1013 C   0  0  0  0  0  0  0  0  0  0  0  0
   -9.1043    4.9020   -8.4435 C   0  0  0  0  0  0  0  0  0  0  0  0
   -6.8138    5.8824  -15.8708 C   0  0  0  0  0  0  0  0  0  0  0  0
   -9.4359    4.5786  -19.8037 C   0  0  0  0  0  0  0  0  0  0  0  0
   -5.5201    6.4933  -16.3425 C   0  0  0  0  0  0  0  0  0  0  0  0
   -7.8511    5.3670  -18.0830 N   0  0  0  0  0  0  0  0  0  0  0  0
   -9.2730    2.4799   -8.6745 N   0  0  0  0  0  0  0  0  0  0  0  0
   -9.2639    4.7108  -14.9074 N   0  0  0  0  0  0  0  0  0  0  0  0
   -8.9571    4.8436  -16.2223 N   0  0  0  0  0  0  0  0  0  0  0  0
   -9.2738    3.6246   -7.9435 N   0  0  0  0  0  0  0  0  0  0  0  0
   -9.1121    5.9087   -7.7414 O   0  0  0  0  0  0  0  0  0  0  0  0
   -8.4019    7.2543  -12.3935 H   0  0  0  0  0  0  0  0  0  0  0  0
   -8.7229    7.1719   -9.9585 H   0  0  0  0  0  0  0  0  0  0  0  0
   -8.7248    2.9627  -12.6156 H   0  0  0  0  0  0  0  0  0  0  0  0
  -10.7122    3.9781  -17.1130 H   0  0  0  0  0  0  0  0  0  0  0  0
   -9.0969    1.6580  -10.5537 H   0  0  0  0  0  0  0  0  0  0  0  0
   -6.3573    6.1226  -13.7989 H   0  0  0  0  0  0  0  0  0  0  0  0
   -9.9936    5.4473  -20.1960 H   0  0  0  0  0  0  0  0  0  0  0  0
   -8.5616    4.4225  -20.4619 H   0  0  0  0  0  0  0  0  0  0  0  0
  -10.0756    3.6870  -19.9383 H   0  0  0  0  0  0  0  0  0  0  0  0
   -5.6549    7.5635  -16.4642 H   0  0  0  0  0  0  0  0  0  0  0  0
   -5.2390    6.0458  -17.2910 H   0  0  0  0  0  0  0  0  0  0  0  0
   -4.7453    6.2994  -15.6070 H   0  0  0  0  0  0  0  0  0  0  0  0
   -9.4142    3.4833   -6.9481 H   0  0  0  0  0  0  0  0  0  0  0  0
  1  2  1  0  0  0  0
  1  5  2  0  0  0  0
  2  6  2  0  0  0  0
  3  5  1  0  0  0  0
  3  7  2  0  0  0  0
  4  8  2  0  0  0  0
  4 20  1  0  0  0  0
  5 12  1  0  0  0  0
  6  7  1  0  0  0  0
  6 13  1  0  0  0  0
  7 10  1  0  0  0  0
  8 15  1  0  0  0  0
  8 17  1  0  0  0  0
  9 14  1  0  0  0  0
  9 17  2  0  0  0  0
  9 20  1  0  0  0  0
 10 18  2  0  0  0  0
 11 12  1  0  0  0  0
 11 14  2  0  0  0  0
 12 19  2  0  0  0  0
 13 21  1  0  0  0  0
 13 22  2  0  0  0  0
 14 16  1  0  0  0  0
 18 21  1  0  0  0  0
 19 20  1  0  0  0  0
  1 23  1  0  0  0  0
  2 24  1  0  0  0  0
  3 25  1  0  0  0  0
  4 26  1  0  0  0  0
 10 27  1  0  0  0  0
 11 28  1  0  0  0  0
 15 29  1  0  0  0  0
 15 30  1  0  0  0  0
 15 31  1  0  0  0  0
 16 32  1  0  0  0  0
 16 33  1  0  0  0  0
 16 34  1  0  0  0  0
 21 35  1  0  0  0  0
M  END
> <id>
EN300-37099358

> <smiles>
CC1=CN2N=C(C=C(C)C2=N1)C=3C=CC=4C(=O)NN=CC4C3

> <MDLNUMBER>
MFCD34600318

> <IUPAC Name>
6-{2,8-dimethylimidazo[1,2-b]pyridazin-6-yl}-1,2-dihydrophthalazin-1-one

> <CAS>
2724264-56-4

> <URL>
https://www.enaminestore.com/catalog/EN300-37099358

> <ROCS_ShapeQuery>
_x0404_0B

> <ROCS_TanimotoCombo>
0.448 

> <ROCS_ShapeTanimoto>
0.381 

> <ROCS_ColorTanimoto>
0.067 

> <ROCS_RefTversky>
0.331 

> <ROCS_RefColorTversky>
0.075 

> <ROCS_RefTverskyCombo>
0.406 

> <ROCS_FitTversky>
1.645 

> <ROCS_FitColorTversky>
0.406 

> <ROCS_FitTverskyCombo>
2.051 

> <ROCS_ColorScore>
-5.402

> <ROCS_Overlap>
2213.070

> <ROCS_Rank>
110                 

$$$$
untitled-dbase-118700_134
  -OEChem-08222312023D

 40 44  0     1  0  0  0  0  0999 V2000
   -7.4870    5.7538  -17.4203 B   0  0  0  0  0  0  0  0  0  0  0  0
   -9.6552    4.8908  -13.8404 C   0  0  0  0  0  0  0  0  0  0  0  0
   -9.9806    4.4452  -15.1222 C   0  0  0  0  0  0  0  0  0  0  0  0
   -7.7086    6.0738  -14.7032 C   0  0  0  0  0  0  0  0  0  0  0  0
   -8.0288    5.6351  -15.9673 C   0  0  0  0  0  0  0  0  0  0  0  0
   -8.5278    5.6985  -13.6330 C   0  0  0  0  0  0  0  0  0  0  0  0
   -9.1646    4.8190  -16.1848 C   0  0  0  0  0  0  0  0  0  0  0  0
   -8.2031    6.1553  -12.2735 C   0  0  0  0  0  0  0  0  0  0  0  0
   -9.3725    4.4261  -17.6145 C   0  0  0  0  0  0  0  0  0  0  0  0
   -9.7382    3.3876   -7.0500 C   0  0  0  0  0  0  0  0  0  0  0  0
   -9.5507    2.1118   -7.8727 C   0  0  0  0  0  0  0  0  0  0  0  0
   -8.9111    5.8819   -9.9212 C   0  0  0  0  0  0  0  0  0  0  0  0
   -8.6017    3.8813  -11.2085 C   0  0  0  0  0  0  0  0  0  0  0  0
   -9.6042    4.7660   -9.1489 C   0  0  1  0  0  0  0  0  0  0  0  0
   -9.4103    3.4799   -9.9790 C   0  0  2  0  0  0  0  0  0  0  0  0
   -8.9047    4.4001   -7.8346 C   0  0  2  0  0  0  0  0  0  0  0  0
   -8.6363    2.5888   -9.0004 C   0  0  1  0  0  0  0  0  0  0  0  0
   -8.5689    5.3337  -11.2162 N   0  0  0  0  0  0  0  0  0  0  0  0
   -7.6366    7.2412  -12.1664 O   0  0  0  0  0  0  0  0  0  0  0  0
   -8.2773    5.0531  -18.3293 O   0  0  0  0  0  0  0  0  0  0  0  0
   -7.8210    3.5610   -8.3021 O   0  0  0  0  0  0  0  0  0  0  0  0
   -6.3718    6.4598  -17.7623 O   0  0  0  0  0  0  0  0  0  0  0  0
  -10.2866    4.6031  -13.0029 H   0  0  0  0  0  0  0  0  0  0  0  0
  -10.8527    3.8193  -15.2806 H   0  0  0  0  0  0  0  0  0  0  0  0
   -6.8362    6.6999  -14.5367 H   0  0  0  0  0  0  0  0  0  0  0  0
   -9.3113    3.3405  -17.7518 H   0  0  0  0  0  0  0  0  0  0  0  0
  -10.3201    4.8098  -18.0088 H   0  0  0  0  0  0  0  0  0  0  0  0
  -10.7869    3.6823   -6.9469 H   0  0  0  0  0  0  0  0  0  0  0  0
   -9.3212    3.2395   -6.0473 H   0  0  0  0  0  0  0  0  0  0  0  0
   -9.0462    1.3545   -7.2618 H   0  0  0  0  0  0  0  0  0  0  0  0
  -10.4939    1.6910   -8.2336 H   0  0  0  0  0  0  0  0  0  0  0  0
   -9.6076    6.7107  -10.1021 H   0  0  0  0  0  0  0  0  0  0  0  0
   -8.0260    6.2925   -9.4217 H   0  0  0  0  0  0  0  0  0  0  0  0
   -7.5923    3.4564  -11.2280 H   0  0  0  0  0  0  0  0  0  0  0  0
   -9.1194    3.5703  -12.1249 H   0  0  0  0  0  0  0  0  0  0  0  0
  -10.6660    5.0137   -8.9865 H   0  0  0  0  0  0  0  0  0  0  0  0
  -10.3628    3.0174  -10.2810 H   0  0  0  0  0  0  0  0  0  0  0  0
   -8.5491    5.2454   -7.2427 H   0  0  0  0  0  0  0  0  0  0  0  0
   -8.0382    1.7993   -9.4593 H   0  0  0  0  0  0  0  0  0  0  0  0
   -5.9569    6.8796  -16.9881 H   0  0  0  0  0  0  0  0  0  0  0  0
  1  5  1  0  0  0  0
  1 20  1  0  0  0  0
  1 22  1  0  0  0  0
  2  3  1  0  0  0  0
  2  6  2  0  0  0  0
  3  7  2  0  0  0  0
  4  5  2  0  0  0  0
  4  6  1  0  0  0  0
  5  7  1  0  0  0  0
  6  8  1  0  0  0  0
  7  9  1  0  0  0  0
  8 18  1  0  0  0  0
  8 19  2  0  0  0  0
  9 20  1  0  0  0  0
 10 11  1  0  0  0  0
 10 16  1  0  0  0  0
 11 17  1  0  0  0  0
 12 14  1  0  0  0  0
 12 18  1  0  0  0  0
 13 15  1  0  0  0  0
 13 18  1  0  0  0  0
 14 15  1  0  0  0  0
 14 16  1  0  0  0  0
 15 17  1  0  0  0  0
 16 21  1  0  0  0  0
 17 21  1  0  0  0  0
  2 23  1  0  0  0  0
  3 24  1  0  0  0  0
  4 25  1  0  0  0  0
  9 26  1  0  0  0  0
  9 27  1  0  0  0  0
 10 28  1  0  0  0  0
 10 29  1  0  0  0  0
 11 30  1  0  0  0  0
 11 31  1  0  0  0  0
 12 32  1  0  0  0  0
 12 33  1  0  0  0  0
 13 34  1  0  0  0  0
 13 35  1  0  0  0  0
 14 36  1  0  0  0  0
 15 37  1  0  0  0  0
 16 38  1  0  0  0  0
 17 39  1  0  0  0  0
 22 40  1  0  0  0  0
M  END
> <id>
EN300-26614087

> <smiles>
OB1OCC=2C=CC(=CC12)C(=O)N3CC4C5CCC(O5)C4C3

> <IUPAC Name>
6-{10-oxa-4-azatricyclo[5.2.1.0,2,6]decane-4-carbonyl}-1,3-dihydro-2,1-benzoxaborol-1-ol

> <URL>
https://www.enaminestore.com/catalog/EN300-26614087

> <ROCS_ShapeQuery>
_x0404_0B

> <ROCS_TanimotoCombo>
0.448 

> <ROCS_ShapeTanimoto>
0.373 

> <ROCS_ColorTanimoto>
0.076 

> <ROCS_RefTversky>
0.326 

> <ROCS_RefColorTversky>
0.085 

> <ROCS_RefTverskyCombo>
0.410 

> <ROCS_FitTversky>
1.633 

> <ROCS_FitColorTversky>
0.415 

> <ROCS_FitTverskyCombo>
2.048 

> <ROCS_ColorScore>
-6.117

> <ROCS_Overlap>
2174.512

> <ROCS_Rank>
111                 

$$$$
untitled-dbase-146237_0
  -OEChem-08222312023D

 35 38  0     0  0  0  0  0  0999 V2000
   -6.0305    6.9268  -18.0947 C   0  0  0  0  0  0  0  0  0  0  0  0
   -6.3298    5.9067  -18.9956 C   0  0  0  0  0  0  0  0  0  0  0  0
   -6.6087    6.9494  -16.8203 C   0  0  0  0  0  0  0  0  0  0  0  0
   -8.8673    5.7136   -9.2067 C   0  0  0  0  0  0  0  0  0  0  0  0
   -7.2136    4.8793  -18.6535 C   0  0  0  0  0  0  0  0  0  0  0  0
   -9.0719    4.5299   -8.4936 C   0  0  0  0  0  0  0  0  0  0  0  0
   -9.0104    3.2037  -10.5466 C   0  0  0  0  0  0  0  0  0  0  0  0
   -8.9624    4.4804  -15.5072 C   0  0  0  0  0  0  0  0  0  0  0  0
   -7.5029    5.9243  -16.4529 C   0  0  0  0  0  0  0  0  0  0  0  0
   -8.7398    5.6033  -10.5750 C   0  0  0  0  0  0  0  0  0  0  0  0
   -8.2532    5.6369  -15.2785 C   0  0  0  0  0  0  0  0  0  0  0  0
   -7.7841    4.9149  -17.3762 C   0  0  0  0  0  0  0  0  0  0  0  0
   -8.8088    4.3792  -11.2375 C   0  0  0  0  0  0  0  0  0  0  0  0
   -9.1426    3.2875   -9.1566 C   0  0  0  0  0  0  0  0  0  0  0  0
   -8.5211    6.6309  -11.5850 C   0  0  0  0  0  0  0  0  0  0  0  0
   -8.4787    5.8514  -12.8457 C   0  0  0  0  0  0  0  0  0  0  0  0
   -8.2953    6.3842  -14.0545 C   0  0  0  0  0  0  0  0  0  0  0  0
   -9.2297    2.8618  -17.3805 C   0  0  0  0  0  0  0  0  0  0  0  0
   -8.6728    4.0522  -16.7750 N   0  0  0  0  0  0  0  0  0  0  0  0
   -8.4046    7.8236  -11.4193 O   0  0  0  0  0  0  0  0  0  0  0  0
   -8.6561    4.4950  -12.6000 O   0  0  0  0  0  0  0  0  0  0  0  0
   -9.3428    2.1519   -8.4291 O   0  0  0  0  0  0  0  0  0  0  0  0
   -5.3400    7.7145  -18.3833 H   0  0  0  0  0  0  0  0  0  0  0  0
   -5.8693    5.9088  -19.9801 H   0  0  0  0  0  0  0  0  0  0  0  0
   -6.3644    7.7528  -16.1311 H   0  0  0  0  0  0  0  0  0  0  0  0
   -8.8124    6.6695   -8.6997 H   0  0  0  0  0  0  0  0  0  0  0  0
   -7.4430    4.0873  -19.3588 H   0  0  0  0  0  0  0  0  0  0  0  0
   -9.1762    4.5711   -7.4119 H   0  0  0  0  0  0  0  0  0  0  0  0
   -9.0649    2.2502  -11.0599 H   0  0  0  0  0  0  0  0  0  0  0  0
   -9.6468    3.9253  -14.8782 H   0  0  0  0  0  0  0  0  0  0  0  0
   -8.1399    7.4619  -14.1137 H   0  0  0  0  0  0  0  0  0  0  0  0
  -10.1536    3.1443  -17.8922 H   0  0  0  0  0  0  0  0  0  0  0  0
   -8.5111    2.4447  -18.0915 H   0  0  0  0  0  0  0  0  0  0  0  0
   -9.4336    2.1218  -16.6017 H   0  0  0  0  0  0  0  0  0  0  0  0
   -9.4146    2.3675   -7.4864 H   0  0  0  0  0  0  0  0  0  0  0  0
  1  2  2  0  0  0  0
  1  3  1  0  0  0  0
  2  5  1  0  0  0  0
  3  9  2  0  0  0  0
  4  6  1  0  0  0  0
  4 10  2  0  0  0  0
  5 12  2  0  0  0  0
  6 14  2  0  0  0  0
  7 13  2  0  0  0  0
  7 14  1  0  0  0  0
  8 11  2  0  0  0  0
  8 19  1  0  0  0  0
  9 11  1  0  0  0  0
  9 12  1  0  0  0  0
 10 13  1  0  0  0  0
 10 15  1  0  0  0  0
 11 17  1  0  0  0  0
 12 19  1  0  0  0  0
 13 21  1  0  0  0  0
 14 22  1  0  0  0  0
 15 16  1  0  0  0  0
 15 20  2  0  0  0  0
 16 17  2  3  0  0  0
 16 21  1  0  0  0  0
 18 19  1  0  0  0  0
  1 23  1  0  0  0  0
  2 24  1  0  0  0  0
  3 25  1  0  0  0  0
  4 26  1  0  0  0  0
  5 27  1  0  0  0  0
  6 28  1  0  0  0  0
  7 29  1  0  0  0  0
  8 30  1  0  0  0  0
 17 31  1  0  0  0  0
 18 32  1  0  0  0  0
 18 33  1  0  0  0  0
 18 34  1  0  0  0  0
 22 35  1  0  0  0  0
M  END
> <id>
EN300-36455

> <smiles>
CN1C=C(C=C2OC=3C=C(O)C=CC3C2=O)C=4C=CC=CC14

> <IUPAC Name>
6-hydroxy-2-[(1-methyl-1H-indol-3-yl)methylidene]-2,3-dihydro-1-benzofuran-3-one

> <CAS>
929339-21-9

> <URL>
https://www.enaminestore.com/catalog/EN300-36455

> <ROCS_ShapeQuery>
_x0404_0B

> <ROCS_TanimotoCombo>
0.448 

> <ROCS_ShapeTanimoto>
0.369 

> <ROCS_ColorTanimoto>
0.079 

> <ROCS_RefTversky>
0.324 

> <ROCS_RefColorTversky>
0.085 

> <ROCS_RefTverskyCombo>
0.409 

> <ROCS_FitTversky>
1.613 

> <ROCS_FitColorTversky>
0.538 

> <ROCS_FitTverskyCombo>
2.150 

> <ROCS_ColorScore>
-6.139

> <ROCS_Overlap>
2161.021

> <ROCS_Rank>
112                 

$$$$
untitled-dbase-100786_115
  -OEChem-08222312023D

 51 52  0     1  0  0  0  0  0999 V2000
   -9.3023    4.9663   -9.0404 C   0  0  0  0  0  0  0  0  0  0  0  0
   -8.6452    5.3722  -15.0469 C   0  0  0  0  0  0  0  0  0  0  0  0
   -6.9675    5.9832  -12.2157 C   0  0  0  0  0  0  0  0  0  0  0  0
   -8.9410    6.7174  -10.8481 C   0  0  0  0  0  0  0  0  0  0  0  0
   -8.4359    6.4717  -12.2863 C   0  0  2  0  0  0  0  0  0  0  0  0
   -8.6281    4.4309  -11.4141 C   0  0  1  0  0  0  0  0  0  0  0  0
   -9.2018    5.1823  -12.6271 C   0  0  2  0  0  0  0  0  0  0  0  0
   -7.1014    4.5806  -11.5802 C   0  0  1  0  0  0  0  0  0  0  0  0
  -10.9797    3.5609   -7.2032 C   0  0  0  0  0  0  0  0  0  0  0  0
   -9.4927    1.5848   -7.6427 C   0  0  0  0  0  0  0  0  0  0  0  0
   -8.5364    3.6640   -6.6080 C   0  0  0  0  0  0  0  0  0  0  0  0
   -6.8710    6.0704  -17.1716 C   0  0  0  0  0  0  0  0  0  0  0  0
   -7.8610    4.1119  -18.3937 C   0  0  0  0  0  0  0  0  0  0  0  0
   -9.3220    6.0485  -17.7431 C   0  0  0  0  0  0  0  0  0  0  0  0
   -9.5711    3.1089   -7.5858 C   0  0  0  0  0  0  0  0  0  0  0  0
   -8.1134    5.1994  -17.3517 C   0  0  0  0  0  0  0  0  0  0  0  0
   -9.0034    5.3491  -10.3305 N   0  0  0  0  0  0  0  0  0  0  0  0
   -8.9037    4.6212  -13.9114 N   0  0  0  0  0  0  0  0  0  0  0  0
   -9.5632    5.7482   -8.1295 O   0  0  0  0  0  0  0  0  0  0  0  0
   -8.6377    6.5976  -15.1003 O   0  0  0  0  0  0  0  0  0  0  0  0
   -6.5951    3.5740  -12.4418 O   0  0  0  0  0  0  0  0  0  0  0  0
   -9.2732    3.6055   -8.8954 O   0  0  0  0  0  0  0  0  0  0  0  0
   -8.3973    4.5480  -16.1084 O   0  0  0  0  0  0  0  0  0  0  0  0
   -6.5158    5.9355  -13.2127 H   0  0  0  0  0  0  0  0  0  0  0  0
   -6.3594    6.6484  -11.5937 H   0  0  0  0  0  0  0  0  0  0  0  0
   -8.2689    7.3279  -10.2380 H   0  0  0  0  0  0  0  0  0  0  0  0
   -9.9502    7.1413  -10.8267 H   0  0  0  0  0  0  0  0  0  0  0  0
   -8.5969    7.3173  -12.9578 H   0  0  0  0  0  0  0  0  0  0  0  0
   -8.9886    3.4106  -11.2653 H   0  0  0  0  0  0  0  0  0  0  0  0
  -10.2898    5.3068  -12.5678 H   0  0  0  0  0  0  0  0  0  0  0  0
   -6.5674    4.5102  -10.6260 H   0  0  0  0  0  0  0  0  0  0  0  0
  -11.0401    4.6543   -7.1613 H   0  0  0  0  0  0  0  0  0  0  0  0
  -11.7272    3.1984   -7.9164 H   0  0  0  0  0  0  0  0  0  0  0  0
  -11.2492    3.1979   -6.2048 H   0  0  0  0  0  0  0  0  0  0  0  0
   -8.4837    1.2561   -7.9169 H   0  0  0  0  0  0  0  0  0  0  0  0
  -10.1660    1.1878   -8.4110 H   0  0  0  0  0  0  0  0  0  0  0  0
   -9.7563    1.1305   -6.6822 H   0  0  0  0  0  0  0  0  0  0  0  0
   -7.5259    3.3399   -6.8822 H   0  0  0  0  0  0  0  0  0  0  0  0
   -8.5530    4.7584   -6.5814 H   0  0  0  0  0  0  0  0  0  0  0  0
   -8.7173    3.2883   -5.5944 H   0  0  0  0  0  0  0  0  0  0  0  0
   -7.0481    6.8523  -16.4244 H   0  0  0  0  0  0  0  0  0  0  0  0
   -6.0054    5.4783  -16.8569 H   0  0  0  0  0  0  0  0  0  0  0  0
   -6.6166    6.5864  -18.1045 H   0  0  0  0  0  0  0  0  0  0  0  0
   -8.7499    3.4846  -18.5261 H   0  0  0  0  0  0  0  0  0  0  0  0
   -7.0556    3.4420  -18.0715 H   0  0  0  0  0  0  0  0  0  0  0  0
   -7.5897    4.5382  -19.3649 H   0  0  0  0  0  0  0  0  0  0  0  0
  -10.2134    5.4240  -17.8723 H   0  0  0  0  0  0  0  0  0  0  0  0
   -9.5407    6.8109  -16.9884 H   0  0  0  0  0  0  0  0  0  0  0  0
   -9.1525    6.5480  -18.7038 H   0  0  0  0  0  0  0  0  0  0  0  0
   -8.8804    3.6039  -13.9952 H   0  0  0  0  0  0  0  0  0  0  0  0
   -7.1146    3.6160  -13.2619 H   0  0  0  0  0  0  0  0  0  0  0  0
  1 17  1  0  0  0  0
  1 19  2  0  0  0  0
  1 22  1  0  0  0  0
  2 18  1  0  0  0  0
  2 20  2  0  0  0  0
  2 23  1  0  0  0  0
  3  5  1  6  0  0  0
  3  8  1  0  0  0  0
  4  5  1  0  0  0  0
  4 17  1  0  0  0  0
  5  7  1  0  0  0  0
  6  7  1  0  0  0  0
  6  8  1  0  0  0  0
  6 17  1  6  0  0  0
  7 18  1  6  0  0  0
  8 21  1  1  0  0  0
  9 15  1  0  0  0  0
 10 15  1  0  0  0  0
 11 15  1  0  0  0  0
 12 16  1  0  0  0  0
 13 16  1  0  0  0  0
 14 16  1  0  0  0  0
 15 22  1  0  0  0  0
 16 23  1  0  0  0  0
  3 24  1  0  0  0  0
  3 25  1  0  0  0  0
  4 26  1  0  0  0  0
  4 27  1  0  0  0  0
  5 28  1  0  0  0  0
  6 29  1  0  0  0  0
  7 30  1  0  0  0  0
  8 31  1  0  0  0  0
  9 32  1  0  0  0  0
  9 33  1  0  0  0  0
  9 34  1  0  0  0  0
 10 35  1  0  0  0  0
 10 36  1  0  0  0  0
 10 37  1  0  0  0  0
 11 38  1  0  0  0  0
 11 39  1  0  0  0  0
 11 40  1  0  0  0  0
 12 41  1  0  0  0  0
 12 42  1  0  0  0  0
 12 43  1  0  0  0  0
 13 44  1  0  0  0  0
 13 45  1  0  0  0  0
 13 46  1  0  0  0  0
 14 47  1  0  0  0  0
 14 48  1  0  0  0  0
 14 49  1  0  0  0  0
 18 50  1  0  0  0  0
 21 51  1  0  0  0  0
M  END
> <id>
EN300-37100463

> <smiles>
CC(C)(C)OC(=O)N[C@@H]1[C@@H]2C[C@H](O)[C@H]1N(C2)C(=O)OC(C)(C)C |&1:8,9,11,13,r|

> <IUPAC Name>
rac-tert-butyl (1R,4S,6R,7S)-7-{[(tert-butoxy)carbonyl]amino}-6-hydroxy-2-azabicyclo[2.2.1]heptane-2-carboxylate

> <URL>
https://www.enaminestore.com/catalog/EN300-37100463

> <ROCS_ShapeQuery>
_x0404_0B

> <ROCS_TanimotoCombo>
0.448 

> <ROCS_ShapeTanimoto>
0.353 

> <ROCS_ColorTanimoto>
0.095 

> <ROCS_RefTversky>
0.313 

> <ROCS_RefColorTversky>
0.106 

> <ROCS_RefTverskyCombo>
0.419 

> <ROCS_FitTversky>
1.579 

> <ROCS_FitColorTversky>
0.467 

> <ROCS_FitTverskyCombo>
2.046 

> <ROCS_ColorScore>
-7.687

> <ROCS_Overlap>
2089.224

> <ROCS_Rank>
113                 

$$$$
untitled-dbase-146048_15
  -OEChem-08222312023D

 41 43  0     0  0  0  0  0  0999 V2000
   -9.1714    2.5174   -7.6365 C   0  0  0  0  0  0  0  0  0  0  0  0
   -9.4427    3.8545   -7.3533 C   0  0  0  0  0  0  0  0  0  0  0  0
   -8.7665    2.1418   -8.9177 C   0  0  0  0  0  0  0  0  0  0  0  0
   -9.3102    4.8218   -8.3499 C   0  0  0  0  0  0  0  0  0  0  0  0
   -7.7978    5.6650  -14.3236 C   0  0  0  0  0  0  0  0  0  0  0  0
   -8.6322    3.1092   -9.9208 C   0  0  0  0  0  0  0  0  0  0  0  0
   -8.9040    4.4492   -9.6369 C   0  0  0  0  0  0  0  0  0  0  0  0
   -8.0652    3.7332  -12.3233 C   0  0  0  0  0  0  0  0  0  0  0  0
   -8.3370    5.0732  -12.0394 C   0  0  0  0  0  0  0  0  0  0  0  0
   -7.5266    4.3279  -14.6069 C   0  0  0  0  0  0  0  0  0  0  0  0
   -7.6591    3.3606  -13.6103 C   0  0  0  0  0  0  0  0  0  0  0  0
   -8.2027    6.0407  -13.0425 C   0  0  0  0  0  0  0  0  0  0  0  0
   -8.2028    2.7022  -11.2743 C   0  0  0  0  0  0  0  0  0  0  0  0
   -8.7663    5.4802  -10.6858 C   0  0  0  0  0  0  0  0  0  0  0  0
   -7.1052    3.9808  -15.9597 C   0  0  0  0  0  0  0  0  0  0  0  0
   -9.1376    4.2596  -17.6111 C   0  0  0  0  0  0  0  0  0  0  0  0
   -8.2643    6.5359  -18.2151 C   0  0  0  0  0  0  0  0  0  0  0  0
   -7.1119    4.4822  -19.0882 C   0  0  0  0  0  0  0  0  0  0  0  0
   -7.8894    5.0854  -17.9193 C   0  0  0  0  0  0  0  0  0  0  0  0
   -7.3710    2.0168  -13.9532 N   0  0  0  0  0  0  0  0  0  0  0  0
   -7.9740    1.5174  -11.4823 O   0  0  0  0  0  0  0  0  0  0  0  0
   -9.0205    6.6345  -10.3708 O   0  0  0  0  0  0  0  0  0  0  0  0
   -6.8369    2.8336  -16.3321 O   0  0  0  0  0  0  0  0  0  0  0  0
   -7.0460    5.0852  -16.7624 O   0  0  0  0  0  0  0  0  0  0  0  0
   -8.5216    7.9161  -12.8697 Br  0  0  0  0  0  0  0  0  0  0  0  0
   -9.2756    1.7664   -6.8588 H   0  0  0  0  0  0  0  0  0  0  0  0
   -9.7580    4.1442   -6.3550 H   0  0  0  0  0  0  0  0  0  0  0  0
   -8.5619    1.0922   -9.1102 H   0  0  0  0  0  0  0  0  0  0  0  0
   -9.5289    5.8561   -8.0988 H   0  0  0  0  0  0  0  0  0  0  0  0
   -7.6908    6.4049  -15.1150 H   0  0  0  0  0  0  0  0  0  0  0  0
   -8.8727    3.2177  -17.3982 H   0  0  0  0  0  0  0  0  0  0  0  0
   -9.6854    4.6616  -16.7526 H   0  0  0  0  0  0  0  0  0  0  0  0
   -9.8139    4.2366  -18.4733 H   0  0  0  0  0  0  0  0  0  0  0  0
   -7.3717    7.1321  -18.4368 H   0  0  0  0  0  0  0  0  0  0  0  0
   -8.7383    7.0021  -17.3438 H   0  0  0  0  0  0  0  0  0  0  0  0
   -8.9508    6.6106  -19.0646 H   0  0  0  0  0  0  0  0  0  0  0  0
   -6.2165    5.0743  -19.3094 H   0  0  0  0  0  0  0  0  0  0  0  0
   -6.8025    3.4531  -18.8786 H   0  0  0  0  0  0  0  0  0  0  0  0
   -7.7176    4.4845  -20.0016 H   0  0  0  0  0  0  0  0  0  0  0  0
   -7.4146    1.3184  -13.2431 H   0  0  0  0  0  0  0  0  0  0  0  0
   -7.0405    1.8145  -14.8718 H   0  0  0  0  0  0  0  0  0  0  0  0
  1  2  2  0  0  0  0
  1  3  1  0  0  0  0
  2  4  1  0  0  0  0
  3  6  2  0  0  0  0
  4  7  2  0  0  0  0
  5 10  2  0  0  0  0
  5 12  1  0  0  0  0
  6  7  1  0  0  0  0
  6 13  1  0  0  0  0
  7 14  1  0  0  0  0
  8  9  1  0  0  0  0
  8 11  2  0  0  0  0
  8 13  1  0  0  0  0
  9 12  2  0  0  0  0
  9 14  1  0  0  0  0
 10 11  1  0  0  0  0
 10 15  1  0  0  0  0
 11 20  1  0  0  0  0
 12 25  1  0  0  0  0
 13 21  2  0  0  0  0
 14 22  2  0  0  0  0
 15 23  2  0  0  0  0
 15 24  1  0  0  0  0
 16 19  1  0  0  0  0
 17 19  1  0  0  0  0
 18 19  1  0  0  0  0
 19 24  1  0  0  0  0
  1 26  1  0  0  0  0
  2 27  1  0  0  0  0
  3 28  1  0  0  0  0
  4 29  1  0  0  0  0
  5 30  1  0  0  0  0
 16 31  1  0  0  0  0
 16 32  1  0  0  0  0
 16 33  1  0  0  0  0
 17 34  1  0  0  0  0
 17 35  1  0  0  0  0
 17 36  1  0  0  0  0
 18 37  1  0  0  0  0
 18 38  1  0  0  0  0
 18 39  1  0  0  0  0
 20 40  1  0  0  0  0
 20 41  1  0  0  0  0
M  END
> <id>
EN300-27722590

> <smiles>
CC(C)(C)OC(=O)C=1C=C(Br)C=2C(=O)C=3C=CC=CC3C(=O)C2C1N

> <IUPAC Name>
tert-butyl 1-amino-4-bromo-9,10-dioxo-9,10-dihydroanthracene-2-carboxylate

> <CAS>
2639414-42-7

> <URL>
https://www.enaminestore.com/catalog/EN300-27722590

> <ROCS_ShapeQuery>
_x0404_0B

> <ROCS_TanimotoCombo>
0.448 

> <ROCS_ShapeTanimoto>
0.348 

> <ROCS_ColorTanimoto>
0.100 

> <ROCS_RefTversky>
0.314 

> <ROCS_RefColorTversky>
0.107 

> <ROCS_RefTverskyCombo>
0.421 

> <ROCS_FitTversky>
1.457 

> <ROCS_FitColorTversky>
0.584 

> <ROCS_FitTverskyCombo>
2.041 

> <ROCS_ColorScore>
-7.761

> <ROCS_Overlap>
2098.258

> <ROCS_Rank>
114                 

$$$$
untitled-dbase-156350_703
  -OEChem-08222312023D

 47 49  0     0  0  0  0  0  0999 V2000
   -8.9419    4.2773  -16.9490 C   0  0  0  0  0  0  0  0  0  0  0  0
   -9.4884    4.4101  -15.6807 C   0  0  0  0  0  0  0  0  0  0  0  0
   -7.2750    4.9588  -18.6099 C   0  0  0  0  0  0  0  0  0  0  0  0
   -5.6811    6.6678  -18.0482 C   0  0  0  0  0  0  0  0  0  0  0  0
   -7.8511    5.0690  -17.3329 C   0  0  0  0  0  0  0  0  0  0  0  0
   -7.3378    5.9911  -16.3969 C   0  0  0  0  0  0  0  0  0  0  0  0
   -6.2540    6.7772  -16.7787 C   0  0  0  0  0  0  0  0  0  0  0  0
   -6.1919    5.7576  -18.9652 C   0  0  0  0  0  0  0  0  0  0  0  0
   -8.9183    5.3391  -14.8342 C   0  0  0  0  0  0  0  0  0  0  0  0
   -8.5784    5.2597   -9.1931 C   0  0  0  0  0  0  0  0  0  0  0  0
   -9.4849    4.2144  -12.6068 C   0  0  0  0  0  0  0  0  0  0  0  0
   -8.7769    6.6768  -12.7069 C   0  0  0  0  0  0  0  0  0  0  0  0
   -8.4837    4.2421  -11.4548 C   0  0  0  0  0  0  0  0  0  0  0  0
   -9.0814    6.6614  -11.2133 C   0  0  0  0  0  0  0  0  0  0  0  0
   -9.4842    5.5190  -13.4359 C   0  0  0  0  0  0  0  0  0  0  0  0
  -10.5595    3.8266   -8.2438 C   0  0  0  0  0  0  0  0  0  0  0  0
   -9.0530    1.8168   -8.2568 C   0  0  0  0  0  0  0  0  0  0  0  0
   -8.7513    3.5947   -6.5085 C   0  0  0  0  0  0  0  0  0  0  0  0
   -9.1503    3.3108   -7.9560 C   0  0  0  0  0  0  0  0  0  0  0  0
   -7.8660    6.1221  -15.1653 N   0  0  0  0  0  0  0  0  0  0  0  0
   -8.7073    5.3932  -10.5792 N   0  0  0  0  0  0  0  0  0  0  0  0
   -8.7483    6.1734   -8.3883 O   0  0  0  0  0  0  0  0  0  0  0  0
   -8.2319    3.9863   -8.8230 O   0  0  0  0  0  0  0  0  0  0  0  0
   -5.7399    7.6647  -15.9134 F   0  0  0  0  0  0  0  0  0  0  0  0
   -5.4214    5.6062  -20.6829 Br  0  0  0  0  0  0  0  0  0  0  0  0
   -9.3716    3.5525  -17.6366 H   0  0  0  0  0  0  0  0  0  0  0  0
  -10.3328    3.8014  -15.3767 H   0  0  0  0  0  0  0  0  0  0  0  0
   -7.6792    4.2433  -19.3238 H   0  0  0  0  0  0  0  0  0  0  0  0
   -4.8345    7.3015  -18.3000 H   0  0  0  0  0  0  0  0  0  0  0  0
   -9.2632    3.3505  -13.2610 H   0  0  0  0  0  0  0  0  0  0  0  0
  -10.4979    4.0296  -12.2064 H   0  0  0  0  0  0  0  0  0  0  0  0
   -9.0927    7.6381  -13.1355 H   0  0  0  0  0  0  0  0  0  0  0  0
   -7.6888    6.6140  -12.8579 H   0  0  0  0  0  0  0  0  0  0  0  0
   -8.5881    3.3383  -10.8365 H   0  0  0  0  0  0  0  0  0  0  0  0
   -7.4632    4.2350  -11.8573 H   0  0  0  0  0  0  0  0  0  0  0  0
   -8.5703    7.5030  -10.7199 H   0  0  0  0  0  0  0  0  0  0  0  0
  -10.1608    6.8042  -11.0385 H   0  0  0  0  0  0  0  0  0  0  0  0
  -10.5615    5.8293  -13.5907 H   0  0  0  0  0  0  0  0  0  0  0  0
  -10.6335    4.8987   -8.0291 H   0  0  0  0  0  0  0  0  0  0  0  0
  -10.8445    3.6605   -9.2878 H   0  0  0  0  0  0  0  0  0  0  0  0
  -11.2961    3.3311   -7.6010 H   0  0  0  0  0  0  0  0  0  0  0  0
   -8.0435    1.4425   -8.0517 H   0  0  0  0  0  0  0  0  0  0  0  0
   -9.2460    1.6188   -9.3173 H   0  0  0  0  0  0  0  0  0  0  0  0
   -9.7654    1.2374   -7.6606 H   0  0  0  0  0  0  0  0  0  0  0  0
   -7.7405    3.2248   -6.3018 H   0  0  0  0  0  0  0  0  0  0  0  0
   -8.7797    4.6660   -6.2850 H   0  0  0  0  0  0  0  0  0  0  0  0
   -9.4190    3.0757   -5.8114 H   0  0  0  0  0  0  0  0  0  0  0  0
  1  2  1  0  0  0  0
  1  5  2  0  0  0  0
  2  9  2  0  0  0  0
  3  5  1  0  0  0  0
  3  8  2  0  0  0  0
  4  7  2  0  0  0  0
  4  8  1  0  0  0  0
  5  6  1  0  0  0  0
  6  7  1  0  0  0  0
  6 20  2  0  0  0  0
  7 24  1  0  0  0  0
  8 25  1  0  0  0  0
  9 15  1  0  0  0  0
  9 20  1  0  0  0  0
 10 21  1  0  0  0  0
 10 22  2  0  0  0  0
 10 23  1  0  0  0  0
 11 13  1  0  0  0  0
 11 15  1  0  0  0  0
 12 14  1  0  0  0  0
 12 15  1  0  0  0  0
 13 21  1  0  0  0  0
 14 21  1  0  0  0  0
 16 19  1  0  0  0  0
 17 19  1  0  0  0  0
 18 19  1  0  0  0  0
 19 23  1  0  0  0  0
  1 26  1  0  0  0  0
  2 27  1  0  0  0  0
  3 28  1  0  0  0  0
  4 29  1  0  0  0  0
 11 30  1  0  0  0  0
 11 31  1  0  0  0  0
 12 32  1  0  0  0  0
 12 33  1  0  0  0  0
 13 34  1  0  0  0  0
 13 35  1  0  0  0  0
 14 36  1  0  0  0  0
 14 37  1  0  0  0  0
 15 38  1  0  0  0  0
 16 39  1  0  0  0  0
 16 40  1  0  0  0  0
 16 41  1  0  0  0  0
 17 42  1  0  0  0  0
 17 43  1  0  0  0  0
 17 44  1  0  0  0  0
 18 45  1  0  0  0  0
 18 46  1  0  0  0  0
 18 47  1  0  0  0  0
M  END
> <id>
EN300-28247111

> <smiles>
CC(C)(C)OC(=O)N1CCC(CC1)C=2C=CC=3C=C(Br)C=C(F)C3N2

> <IUPAC Name>
tert-butyl 4-(6-bromo-8-fluoroquinolin-2-yl)piperidine-1-carboxylate

> <Purity>
95

> <URL>
https://www.enaminestore.com/catalog/EN300-28247111

> <ROCS_ShapeQuery>
_x0404_0B

> <ROCS_TanimotoCombo>
0.448 

> <ROCS_ShapeTanimoto>
0.383 

> <ROCS_ColorTanimoto>
0.065 

> <ROCS_RefTversky>
0.335 

> <ROCS_RefColorTversky>
0.070 

> <ROCS_RefTverskyCombo>
0.405 

> <ROCS_FitTversky>
1.587 

> <ROCS_FitColorTversky>
0.483 

> <ROCS_FitTverskyCombo>
2.070 

> <ROCS_ColorScore>
-5.045

> <ROCS_Overlap>
2240.749

> <ROCS_Rank>
115                 

$$$$
untitled-dbase-141866_186
  -OEChem-08222312023D

 56 58  0     0  0  0  0  0  0999 V2000
   -8.9761    3.9596   -9.1795 B   0  0  0  0  0  0  0  0  0  0  0  0
   -8.9434    6.2430  -10.3304 C   0  0  0  0  0  0  0  0  0  0  0  0
   -8.8439    7.0472  -11.4652 C   0  0  0  0  0  0  0  0  0  0  0  0
   -8.6960    4.2741  -11.7048 C   0  0  0  0  0  0  0  0  0  0  0  0
   -8.8669    4.8578  -10.4497 C   0  0  0  0  0  0  0  0  0  0  0  0
   -8.6581    6.4709  -12.7292 C   0  0  0  0  0  0  0  0  0  0  0  0
   -8.5983    5.0715  -12.8543 C   0  0  0  0  0  0  0  0  0  0  0  0
   -8.7414    4.9483  -16.6343 C   0  0  0  0  0  0  0  0  0  0  0  0
   -8.5806    7.3487  -13.9506 C   0  0  0  0  0  0  0  0  0  0  0  0
   -8.4175    4.4053  -14.1962 C   0  0  0  0  0  0  0  0  0  0  0  0
   -7.8325    6.6572  -15.0837 C   0  0  0  0  0  0  0  0  0  0  0  0
   -9.0127    3.3521   -6.9789 C   0  0  0  0  0  0  0  0  0  0  0  0
   -9.2416    2.0963   -7.8870 C   0  0  0  0  0  0  0  0  0  0  0  0
  -10.0434    3.5258   -5.8544 C   0  0  0  0  0  0  0  0  0  0  0  0
   -7.6043    3.4506   -6.3502 C   0  0  0  0  0  0  0  0  0  0  0  0
  -10.7003    1.5876   -7.9359 C   0  0  0  0  0  0  0  0  0  0  0  0
   -8.3363    0.8991   -7.5643 C   0  0  0  0  0  0  0  0  0  0  0  0
   -8.1369    3.9248  -19.2372 C   0  0  0  0  0  0  0  0  0  0  0  0
   -6.6221    5.9153  -19.4660 C   0  0  0  0  0  0  0  0  0  0  0  0
   -6.1778    4.2042  -17.6820 C   0  0  0  0  0  0  0  0  0  0  0  0
   -7.2552    4.9250  -18.4910 C   0  0  0  0  0  0  0  0  0  0  0  0
   -8.3957    5.3329  -15.3342 N   0  0  0  0  0  0  0  0  0  0  0  0
   -9.5521    4.0645  -16.9050 O   0  0  0  0  0  0  0  0  0  0  0  0
   -9.1505    4.4824   -7.9007 O   0  0  0  0  0  0  0  0  0  0  0  0
   -8.9075    2.5697   -9.2325 O   0  0  0  0  0  0  0  0  0  0  0  0
   -8.0781    5.6738  -17.5891 O   0  0  0  0  0  0  0  0  0  0  0  0
   -9.0819    6.7255   -9.3647 H   0  0  0  0  0  0  0  0  0  0  0  0
   -8.9116    8.1270  -11.3594 H   0  0  0  0  0  0  0  0  0  0  0  0
   -8.6392    3.1914  -11.8133 H   0  0  0  0  0  0  0  0  0  0  0  0
   -9.5991    7.6014  -14.2694 H   0  0  0  0  0  0  0  0  0  0  0  0
   -8.0633    8.2842  -13.7073 H   0  0  0  0  0  0  0  0  0  0  0  0
   -7.4585    3.8742  -14.2094 H   0  0  0  0  0  0  0  0  0  0  0  0
   -9.2180    3.6724  -14.3431 H   0  0  0  0  0  0  0  0  0  0  0  0
   -7.8699    7.2749  -15.9867 H   0  0  0  0  0  0  0  0  0  0  0  0
   -6.7751    6.5159  -14.8268 H   0  0  0  0  0  0  0  0  0  0  0  0
   -9.7988    4.4158   -5.2883 H   0  0  0  0  0  0  0  0  0  0  0  0
  -10.0100    2.6561   -5.2103 H   0  0  0  0  0  0  0  0  0  0  0  0
  -11.0284    3.6246   -6.2932 H   0  0  0  0  0  0  0  0  0  0  0  0
   -7.5423    4.3482   -5.7419 H   0  0  0  0  0  0  0  0  0  0  0  0
   -6.8591    3.4946   -7.1390 H   0  0  0  0  0  0  0  0  0  0  0  0
   -7.4244    2.5780   -5.7290 H   0  0  0  0  0  0  0  0  0  0  0  0
  -10.7586    0.7200   -8.5866 H   0  0  0  0  0  0  0  0  0  0  0  0
  -11.3440    2.3734   -8.3203 H   0  0  0  0  0  0  0  0  0  0  0  0
  -11.0207    1.3130   -6.9351 H   0  0  0  0  0  0  0  0  0  0  0  0
   -8.5713    0.0886   -8.2427 H   0  0  0  0  0  0  0  0  0  0  0  0
   -8.5142    0.5902   -6.5420 H   0  0  0  0  0  0  0  0  0  0  0  0
   -7.3028    1.1976   -7.6871 H   0  0  0  0  0  0  0  0  0  0  0  0
   -8.5932    3.2122  -18.5408 H   0  0  0  0  0  0  0  0  0  0  0  0
   -8.9350    4.4271  -19.7934 H   0  0  0  0  0  0  0  0  0  0  0  0
   -7.5441    3.3312  -19.9426 H   0  0  0  0  0  0  0  0  0  0  0  0
   -5.9886    6.6349  -18.9349 H   0  0  0  0  0  0  0  0  0  0  0  0
   -7.3914    6.5023  -19.9807 H   0  0  0  0  0  0  0  0  0  0  0  0
   -6.0122    5.4066  -20.2196 H   0  0  0  0  0  0  0  0  0  0  0  0
   -5.5452    4.9214  -17.1467 H   0  0  0  0  0  0  0  0  0  0  0  0
   -6.6149    3.5161  -16.9511 H   0  0  0  0  0  0  0  0  0  0  0  0
   -5.5113    3.6354  -18.3405 H   0  0  0  0  0  0  0  0  0  0  0  0
  1  5  1  0  0  0  0
  1 24  1  0  0  0  0
  1 25  1  0  0  0  0
  2  3  1  0  0  0  0
  2  5  2  0  0  0  0
  3  6  2  0  0  0  0
  4  5  1  0  0  0  0
  4  7  2  0  0  0  0
  6  7  1  0  0  0  0
  6  9  1  0  0  0  0
  7 10  1  0  0  0  0
  8 22  1  0  0  0  0
  8 23  2  0  0  0  0
  8 26  1  0  0  0  0
  9 11  1  0  0  0  0
 10 22  1  0  0  0  0
 11 22  1  0  0  0  0
 12 13  1  0  0  0  0
 12 14  1  0  0  0  0
 12 15  1  0  0  0  0
 12 24  1  0  0  0  0
 13 16  1  0  0  0  0
 13 17  1  0  0  0  0
 13 25  1  0  0  0  0
 18 21  1  0  0  0  0
 19 21  1  0  0  0  0
 20 21  1  0  0  0  0
 21 26  1  0  0  0  0
  2 27  1  0  0  0  0
  3 28  1  0  0  0  0
  4 29  1  0  0  0  0
  9 30  1  0  0  0  0
  9 31  1  0  0  0  0
 10 32  1  0  0  0  0
 10 33  1  0  0  0  0
 11 34  1  0  0  0  0
 11 35  1  0  0  0  0
 14 36  1  0  0  0  0
 14 37  1  0  0  0  0
 14 38  1  0  0  0  0
 15 39  1  0  0  0  0
 15 40  1  0  0  0  0
 15 41  1  0  0  0  0
 16 42  1  0  0  0  0
 16 43  1  0  0  0  0
 16 44  1  0  0  0  0
 17 45  1  0  0  0  0
 17 46  1  0  0  0  0
 17 47  1  0  0  0  0
 18 48  1  0  0  0  0
 18 49  1  0  0  0  0
 18 50  1  0  0  0  0
 19 51  1  0  0  0  0
 19 52  1  0  0  0  0
 19 53  1  0  0  0  0
 20 54  1  0  0  0  0
 20 55  1  0  0  0  0
 20 56  1  0  0  0  0
M  END
> <id>
EN300-4722474

> <smiles>
CC(C)(C)OC(=O)N1CCC=2C=CC(=CC2C1)B3OC(C)(C)C(C)(C)O3

> <MDLNUMBER>
MFCD11044674

> <IUPAC Name>
tert-butyl 7-(tetramethyl-1,3,2-dioxaborolan-2-yl)-1,2,3,4-tetrahydroisoquinoline-2-carboxylate

> <CAS>
937048-76-5

> <Purity>
95

> <URL>
https://www.enaminestore.com/catalog/EN300-4722474

> <ROCS_ShapeQuery>
_x0404_0B

> <ROCS_TanimotoCombo>
0.448 

> <ROCS_ShapeTanimoto>
0.403 

> <ROCS_ColorTanimoto>
0.044 

> <ROCS_RefTversky>
0.350 

> <ROCS_RefColorTversky>
0.049 

> <ROCS_RefTverskyCombo>
0.398 

> <ROCS_FitTversky>
1.612 

> <ROCS_FitColorTversky>
0.336 

> <ROCS_FitTverskyCombo>
1.948 

> <ROCS_ColorScore>
-3.510

> <ROCS_Overlap>
2337.895

> <ROCS_Rank>
116                 

$$$$
untitled-dbase-101068_680
  -OEChem-08222312023D

 57 58  0     1  0  0  0  0  0999 V2000
   -7.5388    3.1586  -12.8222 C   0  0  0  0  0  0  0  0  0  0  0  0
   -8.8613    4.5052   -9.3242 C   0  0  0  0  0  0  0  0  0  0  0  0
   -8.9666    4.9149  -16.5707 C   0  0  0  0  0  0  0  0  0  0  0  0
   -8.6158    6.7408  -12.4038 C   0  0  0  0  0  0  0  0  0  0  0  0
   -8.7324    6.4474  -10.9082 C   0  0  0  0  0  0  0  0  0  0  0  0
   -7.6885    5.8276  -14.5999 C   0  0  0  0  0  0  0  0  0  0  0  0
   -9.4807    4.2024  -11.7120 C   0  0  0  0  0  0  0  0  0  0  0  0
   -9.3492    4.1115  -14.2455 C   0  0  0  0  0  0  0  0  0  0  0  0
   -7.8298    5.6238  -13.0927 C   0  0  2  0  0  0  0  0  0  0  0  0
   -8.5565    4.2662  -12.9411 C   0  0  2  0  0  0  0  0  0  0  0  0
  -10.0221    3.2150   -7.0495 C   0  0  0  0  0  0  0  0  0  0  0  0
   -9.3826    1.0623   -8.1750 C   0  0  0  0  0  0  0  0  0  0  0  0
   -7.5998    2.6948   -7.4932 C   0  0  0  0  0  0  0  0  0  0  0  0
   -8.2552    4.5092  -19.3089 C   0  0  0  0  0  0  0  0  0  0  0  0
   -6.6319    6.3968  -18.9754 C   0  0  0  0  0  0  0  0  0  0  0  0
   -6.3851    4.2843  -17.6395 C   0  0  0  0  0  0  0  0  0  0  0  0
   -9.0335    2.5385   -7.9981 C   0  0  0  0  0  0  0  0  0  0  0  0
   -7.3729    5.2443  -18.3010 C   0  0  0  0  0  0  0  0  0  0  0  0
   -8.9804    5.0311  -10.6144 N   0  0  0  0  0  0  0  0  0  0  0  0
   -8.6729    4.9541  -15.2167 N   0  0  0  0  0  0  0  0  0  0  0  0
   -6.7675    3.2338  -11.6865 N   0  0  0  0  0  0  0  0  0  0  0  0
   -7.4377    2.2716  -13.6662 O   0  0  0  0  0  0  0  0  0  0  0  0
   -8.5453    5.1588   -8.3321 O   0  0  0  0  0  0  0  0  0  0  0  0
   -9.8032    4.1686  -17.0744 O   0  0  0  0  0  0  0  0  0  0  0  0
   -9.1349    3.1627   -9.2831 O   0  0  0  0  0  0  0  0  0  0  0  0
   -8.2119    5.8061  -17.2857 O   0  0  0  0  0  0  0  0  0  0  0  0
   -9.5986    6.8389  -12.8400 H   0  0  0  0  0  0  0  0  0  0  0  0
   -8.0845    7.6754  -12.5300 H   0  0  0  0  0  0  0  0  0  0  0  0
   -7.8165    6.7906  -10.3935 H   0  0  0  0  0  0  0  0  0  0  0  0
   -9.5627    7.0234  -10.4591 H   0  0  0  0  0  0  0  0  0  0  0  0
   -7.9111    6.8578  -14.9207 H   0  0  0  0  0  0  0  0  0  0  0  0
   -6.6782    5.5787  -14.9625 H   0  0  0  0  0  0  0  0  0  0  0  0
  -10.4851    4.5803  -11.9528 H   0  0  0  0  0  0  0  0  0  0  0  0
   -9.6146    3.1613  -11.3910 H   0  0  0  0  0  0  0  0  0  0  0  0
   -9.3273    3.0821  -14.6326 H   0  0  0  0  0  0  0  0  0  0  0  0
  -10.4037    4.4083  -14.1578 H   0  0  0  0  0  0  0  0  0  0  0  0
   -6.8464    5.5760  -12.6414 H   0  0  0  0  0  0  0  0  0  0  0  0
   -9.7749    4.2747   -6.9200 H   0  0  0  0  0  0  0  0  0  0  0  0
  -11.0503    3.1403   -7.4181 H   0  0  0  0  0  0  0  0  0  0  0  0
   -9.9784    2.7632   -6.0519 H   0  0  0  0  0  0  0  0  0  0  0  0
   -8.6758    0.5730   -8.8548 H   0  0  0  0  0  0  0  0  0  0  0  0
  -10.3748    0.9472   -8.6260 H   0  0  0  0  0  0  0  0  0  0  0  0
   -9.3718    0.5274   -7.2198 H   0  0  0  0  0  0  0  0  0  0  0  0
   -6.8905    2.2097   -8.1734 H   0  0  0  0  0  0  0  0  0  0  0  0
   -7.3193    3.7486   -7.3954 H   0  0  0  0  0  0  0  0  0  0  0  0
   -7.4749    2.2094   -6.5185 H   0  0  0  0  0  0  0  0  0  0  0  0
   -8.7888    3.6811  -18.8287 H   0  0  0  0  0  0  0  0  0  0  0  0
   -8.9913    5.1793  -19.7649 H   0  0  0  0  0  0  0  0  0  0  0  0
   -7.6500    4.0651  -20.1076 H   0  0  0  0  0  0  0  0  0  0  0  0
   -5.9977    6.9270  -18.2558 H   0  0  0  0  0  0  0  0  0  0  0  0
   -7.3376    7.1372  -19.3691 H   0  0  0  0  0  0  0  0  0  0  0  0
   -6.0025    6.0453  -19.7993 H   0  0  0  0  0  0  0  0  0  0  0  0
   -5.7522    4.8113  -16.9164 H   0  0  0  0  0  0  0  0  0  0  0  0
   -6.9006    3.4706  -17.1190 H   0  0  0  0  0  0  0  0  0  0  0  0
   -5.7081    3.8484  -18.3831 H   0  0  0  0  0  0  0  0  0  0  0  0
   -6.0582    2.5248  -11.5318 H   0  0  0  0  0  0  0  0  0  0  0  0
   -6.8790    3.9698  -10.9968 H   0  0  0  0  0  0  0  0  0  0  0  0
  1 10  1  0  0  0  0
  1 21  1  0  0  0  0
  1 22  2  0  0  0  0
  2 19  1  0  0  0  0
  2 23  2  0  0  0  0
  2 25  1  0  0  0  0
  3 20  1  0  0  0  0
  3 24  2  0  0  0  0
  3 26  1  0  0  0  0
  4  5  1  0  0  0  0
  4  9  1  0  0  0  0
  5 19  1  0  0  0  0
  6  9  1  0  0  0  0
  6 20  1  0  0  0  0
  7 10  1  0  0  0  0
  7 19  1  0  0  0  0
  8 10  1  0  0  0  0
  8 20  1  0  0  0  0
  9 10  1  0  0  0  0
 11 17  1  0  0  0  0
 12 17  1  0  0  0  0
 13 17  1  0  0  0  0
 14 18  1  0  0  0  0
 15 18  1  0  0  0  0
 16 18  1  0  0  0  0
 17 25  1  0  0  0  0
 18 26  1  0  0  0  0
  4 27  1  0  0  0  0
  4 28  1  0  0  0  0
  5 29  1  0  0  0  0
  5 30  1  0  0  0  0
  6 31  1  0  0  0  0
  6 32  1  0  0  0  0
  7 33  1  0  0  0  0
  7 34  1  0  0  0  0
  8 35  1  0  0  0  0
  8 36  1  0  0  0  0
  9 37  1  0  0  0  0
 11 38  1  0  0  0  0
 11 39  1  0  0  0  0
 11 40  1  0  0  0  0
 12 41  1  0  0  0  0
 12 42  1  0  0  0  0
 12 43  1  0  0  0  0
 13 44  1  0  0  0  0
 13 45  1  0  0  0  0
 13 46  1  0  0  0  0
 14 47  1  0  0  0  0
 14 48  1  0  0  0  0
 14 49  1  0  0  0  0
 15 50  1  0  0  0  0
 15 51  1  0  0  0  0
 15 52  1  0  0  0  0
 16 53  1  0  0  0  0
 16 54  1  0  0  0  0
 16 55  1  0  0  0  0
 21 56  1  0  0  0  0
 21 57  1  0  0  0  0
M  END
> <id>
EN300-37430685

> <smiles>
CC(C)(C)OC(=O)N1CC2CCN(CC2(C1)C(=O)N)C(=O)OC(C)(C)C

> <IUPAC Name>
2,5-di-tert-butyl 3a-carbamoyl-octahydro-1H-pyrrolo[3,4-c]pyridine-2,5-dicarboxylate

> <URL>
https://www.enaminestore.com/catalog/EN300-37430685

> <ROCS_ShapeQuery>
_x0404_0B

> <ROCS_TanimotoCombo>
0.448 

> <ROCS_ShapeTanimoto>
0.394 

> <ROCS_ColorTanimoto>
0.053 

> <ROCS_RefTversky>
0.344 

> <ROCS_RefColorTversky>
0.059 

> <ROCS_RefTverskyCombo>
0.403 

> <ROCS_FitTversky>
1.588 

> <ROCS_FitColorTversky>
0.371 

> <ROCS_FitTverskyCombo>
1.958 

> <ROCS_ColorScore>
-4.229

> <ROCS_Overlap>
2300.388

> <ROCS_Rank>
117                 

$$$$
untitled-dbase-146690_2189
  -OEChem-08222312023D

 58 61  0     1  0  0  0  0  0999 V2000
   -8.7107    5.5682  -16.7582 C   0  0  0  0  0  0  0  0  0  0  0  0
   -8.2145    5.2739  -15.5183 C   0  0  0  0  0  0  0  0  0  0  0  0
   -7.5251    4.0626  -15.6557 C   0  0  0  0  0  0  0  0  0  0  0  0
   -9.1944    5.2130   -9.0673 C   0  0  0  0  0  0  0  0  0  0  0  0
   -9.2752    6.1122  -20.5254 C   0  0  0  0  0  0  0  0  0  0  0  0
  -10.2790    4.9751  -20.6075 C   0  0  0  0  0  0  0  0  0  0  0  0
   -8.0548    5.4735  -19.8719 C   0  0  0  0  0  0  0  0  0  0  0  0
  -10.1154    4.2680  -19.2702 C   0  0  0  0  0  0  0  0  0  0  0  0
   -7.6216    6.4491  -12.1706 C   0  0  0  0  0  0  0  0  0  0  0  0
   -9.1679    4.5549  -12.6602 C   0  0  0  0  0  0  0  0  0  0  0  0
   -6.6652    4.4380  -13.3992 C   0  0  0  0  0  0  0  0  0  0  0  0
   -7.4503    5.9393  -10.7419 C   0  0  0  0  0  0  0  0  0  0  0  0
   -8.9793    4.0381  -11.2380 C   0  0  0  0  0  0  0  0  0  0  0  0
   -6.8030    3.4139  -14.5444 C   0  0  1  0  0  0  0  0  0  0  0  0
   -8.6097    4.3547  -18.9680 C   0  0  0  0  0  0  0  0  0  0  0  0
   -7.9404    5.3306  -13.1904 C   0  0  0  0  0  0  0  0  0  0  0  0
   -9.4704    4.5284   -6.3018 C   0  0  0  0  0  0  0  0  0  0  0  0
   -9.9391    2.1990   -7.1163 C   0  0  0  0  0  0  0  0  0  0  0  0
   -7.7106    3.2609   -7.5789 C   0  0  0  0  0  0  0  0  0  0  0  0
   -9.2088    3.5079   -7.4086 C   0  0  0  0  0  0  0  0  0  0  0  0
   -7.5842    3.5875  -16.9022 N   0  0  0  0  0  0  0  0  0  0  0  0
   -8.3139    4.5229  -17.5477 N   0  0  0  0  0  0  0  0  0  0  0  0
   -8.5854    5.1098  -10.3237 N   0  0  0  0  0  0  0  0  0  0  0  0
   -9.2543    6.2503   -8.4093 O   0  0  0  0  0  0  0  0  0  0  0  0
   -8.3375    6.0264  -14.4066 O   0  0  0  0  0  0  0  0  0  0  0  0
   -7.4864    2.2607  -14.0630 O   0  0  0  0  0  0  0  0  0  0  0  0
   -9.7282    4.0264   -8.6386 O   0  0  0  0  0  0  0  0  0  0  0  0
   -9.2857    6.3989  -17.1437 H   0  0  0  0  0  0  0  0  0  0  0  0
   -9.0455    6.5379  -21.5063 H   0  0  0  0  0  0  0  0  0  0  0  0
   -9.6650    6.9141  -19.8868 H   0  0  0  0  0  0  0  0  0  0  0  0
  -11.3011    5.3304  -20.7660 H   0  0  0  0  0  0  0  0  0  0  0  0
  -10.0203    4.2974  -21.4298 H   0  0  0  0  0  0  0  0  0  0  0  0
   -7.4239    5.0250  -20.6492 H   0  0  0  0  0  0  0  0  0  0  0  0
   -7.4479    6.2134  -19.3400 H   0  0  0  0  0  0  0  0  0  0  0  0
  -10.7078    4.7817  -18.5025 H   0  0  0  0  0  0  0  0  0  0  0  0
  -10.4617    3.2304  -19.3155 H   0  0  0  0  0  0  0  0  0  0  0  0
   -8.4224    7.2051  -12.1595 H   0  0  0  0  0  0  0  0  0  0  0  0
   -6.7021    6.9769  -12.4745 H   0  0  0  0  0  0  0  0  0  0  0  0
   -9.3890    3.7050  -13.3225 H   0  0  0  0  0  0  0  0  0  0  0  0
  -10.0516    5.2089  -12.6714 H   0  0  0  0  0  0  0  0  0  0  0  0
   -6.4641    3.8876  -12.4653 H   0  0  0  0  0  0  0  0  0  0  0  0
   -5.7755    5.0621  -13.5687 H   0  0  0  0  0  0  0  0  0  0  0  0
   -6.5141    5.3758  -10.6602 H   0  0  0  0  0  0  0  0  0  0  0  0
   -7.3846    6.7755  -10.0345 H   0  0  0  0  0  0  0  0  0  0  0  0
   -9.9159    3.6128  -10.8510 H   0  0  0  0  0  0  0  0  0  0  0  0
   -8.2431    3.2255  -11.2414 H   0  0  0  0  0  0  0  0  0  0  0  0
   -5.8120    3.0941  -14.8901 H   0  0  0  0  0  0  0  0  0  0  0  0
   -8.1143    3.3858  -19.2409 H   0  0  0  0  0  0  0  0  0  0  0  0
   -8.9479    5.4694   -6.5079 H   0  0  0  0  0  0  0  0  0  0  0  0
  -10.5390    4.7406   -6.1932 H   0  0  0  0  0  0  0  0  0  0  0  0
   -9.0896    4.1678   -5.3394 H   0  0  0  0  0  0  0  0  0  0  0  0
   -9.7542    1.4639   -7.9079 H   0  0  0  0  0  0  0  0  0  0  0  0
  -11.0236    2.3551   -7.0873 H   0  0  0  0  0  0  0  0  0  0  0  0
   -9.6255    1.7660   -6.1609 H   0  0  0  0  0  0  0  0  0  0  0  0
   -7.5226    2.5289   -8.3727 H   0  0  0  0  0  0  0  0  0  0  0  0
   -7.1751    4.1834   -7.8256 H   0  0  0  0  0  0  0  0  0  0  0  0
   -7.2782    2.8417   -6.6631 H   0  0  0  0  0  0  0  0  0  0  0  0
   -7.5551    1.6460  -14.8105 H   0  0  0  0  0  0  0  0  0  0  0  0
  1  2  2  0  0  0  0
  1 22  1  0  0  0  0
  2  3  1  0  0  0  0
  2 25  1  0  0  0  0
  3 14  1  0  0  0  0
  3 21  2  0  0  0  0
  4 23  1  0  0  0  0
  4 24  2  0  0  0  0
  4 27  1  0  0  0  0
  5  6  1  0  0  0  0
  5  7  1  0  0  0  0
  6  8  1  0  0  0  0
  7 15  1  0  0  0  0
  8 15  1  0  0  0  0
  9 12  1  0  0  0  0
  9 16  1  0  0  0  0
 10 13  1  0  0  0  0
 10 16  1  0  0  0  0
 11 14  1  0  0  0  0
 11 16  1  0  0  0  0
 12 23  1  0  0  0  0
 13 23  1  0  0  0  0
 14 26  1  0  0  0  0
 15 22  1  0  0  0  0
 16 25  1  0  0  0  0
 17 20  1  0  0  0  0
 18 20  1  0  0  0  0
 19 20  1  0  0  0  0
 20 27  1  0  0  0  0
 21 22  1  0  0  0  0
  1 28  1  0  0  0  0
  5 29  1  0  0  0  0
  5 30  1  0  0  0  0
  6 31  1  0  0  0  0
  6 32  1  0  0  0  0
  7 33  1  0  0  0  0
  7 34  1  0  0  0  0
  8 35  1  0  0  0  0
  8 36  1  0  0  0  0
  9 37  1  0  0  0  0
  9 38  1  0  0  0  0
 10 39  1  0  0  0  0
 10 40  1  0  0  0  0
 11 41  1  0  0  0  0
 11 42  1  0  0  0  0
 12 43  1  0  0  0  0
 12 44  1  0  0  0  0
 13 45  1  0  0  0  0
 13 46  1  0  0  0  0
 14 47  1  0  0  0  0
 15 48  1  0  0  0  0
 17 49  1  0  0  0  0
 17 50  1  0  0  0  0
 17 51  1  0  0  0  0
 18 52  1  0  0  0  0
 18 53  1  0  0  0  0
 18 54  1  0  0  0  0
 19 55  1  0  0  0  0
 19 56  1  0  0  0  0
 19 57  1  0  0  0  0
 26 58  1  0  0  0  0
M  END
> <id>
EN300-27718475

> <smiles>
CC(C)(C)OC(=O)N1CCC2(CC1)CC(O)C3=NN(C=C3O2)C4CCCC4

> <IUPAC Name>
tert-butyl 2'-cyclopentyl-7'-hydroxy-6',7'-dihydro-2'H-spiro[piperidine-4,5'-pyrano[3,2-c]pyrazole]-1-carboxylate

> <CAS>
2639434-53-8

> <URL>
https://www.enaminestore.com/catalog/EN300-27718475

> <ROCS_ShapeQuery>
_x0404_0B

> <ROCS_TanimotoCombo>
0.448 

> <ROCS_ShapeTanimoto>
0.335 

> <ROCS_ColorTanimoto>
0.112 

> <ROCS_RefTversky>
0.308 

> <ROCS_RefColorTversky>
0.120 

> <ROCS_RefTverskyCombo>
0.428 

> <ROCS_FitTversky>
1.359 

> <ROCS_FitColorTversky>
0.650 

> <ROCS_FitTverskyCombo>
2.009 

> <ROCS_ColorScore>
-8.644

> <ROCS_Overlap>
2059.542

> <ROCS_Rank>
118                 

$$$$
untitled-dbase-85520_134
  -OEChem-08222312023D

104107  0     1  0  0  0  0  0999 V2000
   -8.4930    5.1827  -12.5693 C   0  0  0  0  0  0  0  0  0  0  0  0
   -9.6873    7.0743  -11.6793 C   0  0  0  0  0  0  0  0  0  0  0  0
   -8.8613   -1.9219   -9.0026 C   0  0  0  0  0  0  0  0  0  0  0  0
   -8.3891    4.6449  -11.2865 C   0  0  0  0  0  0  0  0  0  0  0  0
   -9.5902    6.5323  -10.3912 C   0  0  0  0  0  0  0  0  0  0  0  0
   -4.7140    3.5178  -13.5015 C   0  0  0  0  0  0  0  0  0  0  0  0
  -10.0525   -1.7216   -8.3063 C   0  0  0  0  0  0  0  0  0  0  0  0
   -4.6665    2.7449  -12.3438 C   0  0  0  0  0  0  0  0  0  0  0  0
   -8.2463    0.3826   -8.6066 C   0  0  0  0  0  0  0  0  0  0  0  0
   -6.3939    2.0603  -14.3414 C   0  0  0  0  0  0  0  0  0  0  0  0
   -9.4391    0.5859   -7.8978 C   0  0  0  0  0  0  0  0  0  0  0  0
   -9.1387    6.4057  -12.7777 C   0  0  0  0  0  0  0  0  0  0  0  0
   -7.9493   -0.8719   -9.1662 C   0  0  0  0  0  0  0  0  0  0  0  0
   -8.9399    5.3122  -10.1848 C   0  0  0  0  0  0  0  0  0  0  0  0
   -5.6067    3.1896  -14.5185 C   0  0  0  0  0  0  0  0  0  0  0  0
  -10.3441   -0.4730   -7.7581 C   0  0  0  0  0  0  0  0  0  0  0  0
   -5.5197    1.6527  -12.2519 C   0  0  0  0  0  0  0  0  0  0  0  0
   -9.8068    1.9059   -7.3152 C   0  0  0  0  0  0  0  0  0  0  0  0
   -5.5324    0.8222  -11.0234 C   0  0  0  0  0  0  0  0  0  0  0  0
  -10.4784    5.4132  -16.8741 C   0  0  0  0  0  0  0  0  0  0  0  0
   -6.6923    5.8568  -19.2148 C   0  0  0  0  0  0  0  0  0  0  0  0
   -9.3092    5.0856   -7.7045 C   0  0  0  0  0  0  0  0  0  0  0  0
   -9.2619    6.9610  -14.1728 C   0  0  0  0  0  0  0  0  0  0  0  0
   -6.6533   -1.1045   -9.8991 C   0  0  0  0  0  0  0  0  0  0  0  0
  -10.5014    5.3461  -18.3988 C   0  0  0  0  0  0  0  0  0  0  0  0
   -8.1530    6.2045  -18.9283 C   0  0  0  0  0  0  0  0  0  0  0  0
  -10.6410    6.6871  -14.7789 C   0  0  0  0  0  0  0  0  0  0  0  0
   -6.1835    6.0044  -16.7303 C   0  0  0  0  0  0  0  0  0  0  0  0
   -5.4097    5.2601  -15.6419 C   0  0  0  0  0  0  0  0  0  0  0  0
   -8.9673    4.1304   -6.5551 C   0  0  2  0  0  0  0  0  0  0  0  0
   -9.1352    5.0093  -19.0680 C   0  0  0  0  0  0  0  0  0  0  0  0
   -9.4203    4.7635  -20.5692 C   0  0  0  0  0  0  0  0  0  0  0  0
   -8.5534    3.7026  -18.4912 C   0  0  0  0  0  0  0  0  0  0  0  0
   -8.6717    4.4354   -3.5140 C   0  0  0  0  0  0  0  0  0  0  0  0
   -6.1933    4.5927   -3.7932 C   0  0  0  0  0  0  0  0  0  0  0  0
   -7.4047    2.5030   -4.4652 C   0  0  0  0  0  0  0  0  0  0  0  0
  -10.6626    7.9519  -16.9155 C   0  0  0  0  0  0  0  0  0  0  0  0
   -4.4075    5.4530  -18.4075 C   0  0  0  0  0  0  0  0  0  0  0  0
   -7.7278    4.6324   -5.8265 C   0  0  0  0  0  0  0  0  0  0  0  0
   -7.4859    4.0377   -4.4145 C   0  0  0  0  0  0  0  0  0  0  0  0
   -6.3776    1.2872  -13.2318 N   0  0  0  0  0  0  0  0  0  0  0  0
   -8.8059    4.6754   -8.9304 N   0  0  0  0  0  0  0  0  0  0  0  0
   -8.7579    2.7729   -7.0448 N   0  0  0  0  0  0  0  0  0  0  0  0
   -6.4751   -0.1934  -11.0177 N   0  0  0  0  0  0  0  0  0  0  0  0
  -10.5863    6.6559  -16.2466 N   0  0  0  0  0  0  0  0  0  0  0  0
   -5.8181    5.7079  -18.1265 N   0  0  0  0  0  0  0  0  0  0  0  0
  -10.9908    2.1632   -7.1107 O   0  0  0  0  0  0  0  0  0  0  0  0
   -4.7512    1.0676  -10.1096 O   0  0  0  0  0  0  0  0  0  0  0  0
  -10.3877    4.3539  -16.2411 O   0  0  0  0  0  0  0  0  0  0  0  0
   -6.3433    5.7080  -20.3912 O   0  0  0  0  0  0  0  0  0  0  0  0
   -9.8798    6.1480   -7.4628 O   0  0  0  0  0  0  0  0  0  0  0  0
   -5.7779    3.8791  -15.6842 O   0  0  0  0  0  0  0  0  0  0  0  0
  -11.5154   -0.3084   -7.1242 F   0  0  0  0  0  0  0  0  0  0  0  0
   -8.0586    4.6420  -13.4091 H   0  0  0  0  0  0  0  0  0  0  0  0
  -10.1920    8.0270  -11.8126 H   0  0  0  0  0  0  0  0  0  0  0  0
   -8.6513   -2.9036   -9.4201 H   0  0  0  0  0  0  0  0  0  0  0  0
   -7.8700    3.6979  -11.1583 H   0  0  0  0  0  0  0  0  0  0  0  0
  -10.0225    7.1037   -9.5769 H   0  0  0  0  0  0  0  0  0  0  0  0
   -4.0478    4.3710  -13.5800 H   0  0  0  0  0  0  0  0  0  0  0  0
  -10.7625   -2.5370   -8.2026 H   0  0  0  0  0  0  0  0  0  0  0  0
   -3.9873    3.0173  -11.5431 H   0  0  0  0  0  0  0  0  0  0  0  0
   -7.5312    1.1882   -8.7410 H   0  0  0  0  0  0  0  0  0  0  0  0
   -7.0999    1.7441  -15.1026 H   0  0  0  0  0  0  0  0  0  0  0  0
   -9.0663    8.0411  -14.1363 H   0  0  0  0  0  0  0  0  0  0  0  0
   -8.4777    6.5329  -14.8104 H   0  0  0  0  0  0  0  0  0  0  0  0
   -5.8143   -0.9599   -9.2127 H   0  0  0  0  0  0  0  0  0  0  0  0
   -6.6081   -2.1254  -10.2906 H   0  0  0  0  0  0  0  0  0  0  0  0
  -11.2230    4.5932  -18.7163 H   0  0  0  0  0  0  0  0  0  0  0  0
  -10.8662    6.3127  -18.7591 H   0  0  0  0  0  0  0  0  0  0  0  0
   -8.2190    6.5993  -17.9240 H   0  0  0  0  0  0  0  0  0  0  0  0
   -8.4372    6.9828  -19.6287 H   0  0  0  0  0  0  0  0  0  0  0  0
  -11.0565    5.7378  -14.4128 H   0  0  0  0  0  0  0  0  0  0  0  0
  -11.3486    7.4706  -14.4718 H   0  0  0  0  0  0  0  0  0  0  0  0
   -7.2757    5.8294  -16.6218 H   0  0  0  0  0  0  0  0  0  0  0  0
   -6.0455    7.0947  -16.5700 H   0  0  0  0  0  0  0  0  0  0  0  0
   -4.3327    5.3710  -15.7859 H   0  0  0  0  0  0  0  0  0  0  0  0
   -5.6974    5.7001  -14.6819 H   0  0  0  0  0  0  0  0  0  0  0  0
   -9.8117    4.1263   -5.8489 H   0  0  0  0  0  0  0  0  0  0  0  0
   -8.4893    4.5259  -21.0673 H   0  0  0  0  0  0  0  0  0  0  0  0
   -9.8511    5.6606  -20.9944 H   0  0  0  0  0  0  0  0  0  0  0  0
  -10.1134    3.9376  -20.6625 H   0  0  0  0  0  0  0  0  0  0  0  0
   -7.6073    3.4971  -18.9752 H   0  0  0  0  0  0  0  0  0  0  0  0
   -9.2501    2.8960  -18.6801 H   0  0  0  0  0  0  0  0  0  0  0  0
   -8.4068    3.8252  -17.4257 H   0  0  0  0  0  0  0  0  0  0  0  0
   -9.6187    4.0602   -3.9183 H   0  0  0  0  0  0  0  0  0  0  0  0
   -8.7538    5.5247   -3.4255 H   0  0  0  0  0  0  0  0  0  0  0  0
   -8.5578    4.0279   -2.5030 H   0  0  0  0  0  0  0  0  0  0  0  0
   -5.3132    4.3397   -4.3932 H   0  0  0  0  0  0  0  0  0  0  0  0
   -6.2363    5.6836   -3.7006 H   0  0  0  0  0  0  0  0  0  0  0  0
   -6.0299    4.1807   -2.7907 H   0  0  0  0  0  0  0  0  0  0  0  0
   -6.5726    2.1722   -5.0966 H   0  0  0  0  0  0  0  0  0  0  0  0
   -8.3252    2.0734   -4.8771 H   0  0  0  0  0  0  0  0  0  0  0  0
   -7.2649    2.0708   -3.4690 H   0  0  0  0  0  0  0  0  0  0  0  0
  -11.7155    8.2023  -17.1120 H   0  0  0  0  0  0  0  0  0  0  0  0
  -10.2163    8.7237  -16.2712 H   0  0  0  0  0  0  0  0  0  0  0  0
  -10.1129    7.9061  -17.8672 H   0  0  0  0  0  0  0  0  0  0  0  0
   -3.8700    6.4096  -18.4854 H   0  0  0  0  0  0  0  0  0  0  0  0
   -3.9739    4.8542  -17.5930 H   0  0  0  0  0  0  0  0  0  0  0  0
   -4.3162    4.9030  -19.3557 H   0  0  0  0  0  0  0  0  0  0  0  0
   -7.7970    5.7260   -5.7504 H   0  0  0  0  0  0  0  0  0  0  0  0
   -6.8539    4.4261   -6.4591 H   0  0  0  0  0  0  0  0  0  0  0  0
   -8.2724    3.8061   -8.9289 H   0  0  0  0  0  0  0  0  0  0  0  0
   -7.8172    2.4523   -7.1923 H   0  0  0  0  0  0  0  0  0  0  0  0
   -7.0842   -0.3091  -11.8225 H   0  0  0  0  0  0  0  0  0  0  0  0
  1  4  1  0  0  0  0
  1 12  2  0  0  0  0
  2  5  2  0  0  0  0
  2 12  1  0  0  0  0
  3  7  1  0  0  0  0
  3 13  2  0  0  0  0
  4 14  2  0  0  0  0
  5 14  1  0  0  0  0
  6  8  1  0  0  0  0
  6 15  2  0  0  0  0
  7 16  2  0  0  0  0
  8 17  2  0  0  0  0
  9 11  2  0  0  0  0
  9 13  1  0  0  0  0
 10 15  1  0  0  0  0
 10 41  2  0  0  0  0
 11 16  1  0  0  0  0
 11 18  1  0  0  0  0
 12 23  1  0  0  0  0
 13 24  1  0  0  0  0
 14 42  1  0  0  0  0
 15 52  1  0  0  0  0
 16 53  1  0  0  0  0
 17 19  1  0  0  0  0
 17 41  1  0  0  0  0
 18 43  1  0  0  0  0
 18 47  2  0  0  0  0
 19 44  1  0  0  0  0
 19 48  2  0  0  0  0
 20 25  1  0  0  0  0
 20 45  1  0  0  0  0
 20 49  2  0  0  0  0
 21 26  1  0  0  0  0
 21 46  1  0  0  0  0
 21 50  2  0  0  0  0
 22 30  1  0  0  0  0
 22 42  1  0  0  0  0
 22 51  2  0  0  0  0
 23 27  1  0  0  0  0
 24 44  1  0  0  0  0
 25 31  1  0  0  0  0
 26 31  1  0  0  0  0
 27 45  1  0  0  0  0
 28 29  1  0  0  0  0
 28 46  1  0  0  0  0
 29 52  1  0  0  0  0
 30 39  1  1  0  0  0
 30 43  1  0  0  0  0
 31 32  1  0  0  0  0
 31 33  1  0  0  0  0
 34 40  1  0  0  0  0
 35 40  1  0  0  0  0
 36 40  1  0  0  0  0
 37 45  1  0  0  0  0
 38 46  1  0  0  0  0
 39 40  1  0  0  0  0
  1 54  1  0  0  0  0
  2 55  1  0  0  0  0
  3 56  1  0  0  0  0
  4 57  1  0  0  0  0
  5 58  1  0  0  0  0
  6 59  1  0  0  0  0
  7 60  1  0  0  0  0
  8 61  1  0  0  0  0
  9 62  1  0  0  0  0
 10 63  1  0  0  0  0
 23 64  1  0  0  0  0
 23 65  1  0  0  0  0
 24 66  1  0  0  0  0
 24 67  1  0  0  0  0
 25 68  1  0  0  0  0
 25 69  1  0  0  0  0
 26 70  1  0  0  0  0
 26 71  1  0  0  0  0
 27 72  1  0  0  0  0
 27 73  1  0  0  0  0
 28 74  1  0  0  0  0
 28 75  1  0  0  0  0
 29 76  1  0  0  0  0
 29 77  1  0  0  0  0
 30 78  1  0  0  0  0
 32 79  1  0  0  0  0
 32 80  1  0  0  0  0
 32 81  1  0  0  0  0
 33 82  1  0  0  0  0
 33 83  1  0  0  0  0
 33 84  1  0  0  0  0
 34 85  1  0  0  0  0
 34 86  1  0  0  0  0
 34 87  1  0  0  0  0
 35 88  1  0  0  0  0
 35 89  1  0  0  0  0
 35 90  1  0  0  0  0
 36 91  1  0  0  0  0
 36 92  1  0  0  0  0
 36 93  1  0  0  0  0
 37 94  1  0  0  0  0
 37 95  1  0  0  0  0
 37 96  1  0  0  0  0
 38 97  1  0  0  0  0
 38 98  1  0  0  0  0
 38 99  1  0  0  0  0
 39100  1  0  0  0  0
 39101  1  0  0  0  0
 42102  1  0  0  0  0
 43103  1  0  0  0  0
 44104  1  0  0  0  0
M  END
> <id>
EN300-6482253

> <smiles>
CN1CCOC=2C=CC(=NC2)C(=O)NCC=3C=CC(F)=C(C3)C(=O)N[C@@H](CC(C)(C)C)C(=O)NC=4C=CC(CCN(C)C(=O)CC(C)(C)CC1=O)=CC4

> <MDLNUMBER>
MFCD31668405

> <IUPAC Name>
(12S)-12-(2,2-dimethylpropyl)-8-fluoro-21,24,24,27-tetramethyl-30-oxa-3,11,14,21,27,33-hexaazatetracyclo[29.2.2.2^{15,18}.1^{5,9}]octatriaconta-1(33),5(38),6,8,15,17,31,34,36-nonaene-2,10,13,22,26-pentone

> <URL>
https://www.enaminestore.com/catalog/EN300-6482253

> <ROCS_ShapeQuery>
_x0404_0B

> <ROCS_TanimotoCombo>
0.448 

> <ROCS_ShapeTanimoto>
0.368 

> <ROCS_ColorTanimoto>
0.079 

> <ROCS_RefTversky>
0.372 

> <ROCS_RefColorTversky>
0.092 

> <ROCS_RefTverskyCombo>
0.464 

> <ROCS_FitTversky>
0.972 

> <ROCS_FitColorTversky>
0.369 

> <ROCS_FitTverskyCombo>
1.341 

> <ROCS_ColorScore>
-6.661

> <ROCS_Overlap>
2509.833

> <ROCS_Rank>
119                 

$$$$
untitled-dbase-85521_134
  -OEChem-08222312023D

104107  0     1  0  0  0  0  0999 V2000
   -8.4930    5.1827  -12.5693 C   0  0  0  0  0  0  0  0  0  0  0  0
   -9.6873    7.0743  -11.6793 C   0  0  0  0  0  0  0  0  0  0  0  0
   -8.8613   -1.9219   -9.0026 C   0  0  0  0  0  0  0  0  0  0  0  0
   -8.3891    4.6449  -11.2865 C   0  0  0  0  0  0  0  0  0  0  0  0
   -9.5902    6.5323  -10.3912 C   0  0  0  0  0  0  0  0  0  0  0  0
   -4.7140    3.5178  -13.5015 C   0  0  0  0  0  0  0  0  0  0  0  0
  -10.0525   -1.7216   -8.3063 C   0  0  0  0  0  0  0  0  0  0  0  0
   -4.6665    2.7449  -12.3438 C   0  0  0  0  0  0  0  0  0  0  0  0
   -8.2463    0.3826   -8.6066 C   0  0  0  0  0  0  0  0  0  0  0  0
   -6.3939    2.0603  -14.3414 C   0  0  0  0  0  0  0  0  0  0  0  0
   -9.4391    0.5859   -7.8978 C   0  0  0  0  0  0  0  0  0  0  0  0
   -9.1387    6.4057  -12.7777 C   0  0  0  0  0  0  0  0  0  0  0  0
   -7.9493   -0.8719   -9.1662 C   0  0  0  0  0  0  0  0  0  0  0  0
   -8.9399    5.3122  -10.1848 C   0  0  0  0  0  0  0  0  0  0  0  0
   -5.6067    3.1896  -14.5185 C   0  0  0  0  0  0  0  0  0  0  0  0
  -10.3441   -0.4730   -7.7581 C   0  0  0  0  0  0  0  0  0  0  0  0
   -5.5197    1.6527  -12.2519 C   0  0  0  0  0  0  0  0  0  0  0  0
   -9.8068    1.9059   -7.3152 C   0  0  0  0  0  0  0  0  0  0  0  0
   -5.5324    0.8222  -11.0234 C   0  0  0  0  0  0  0  0  0  0  0  0
  -10.4784    5.4132  -16.8741 C   0  0  0  0  0  0  0  0  0  0  0  0
   -6.6923    5.8568  -19.2148 C   0  0  0  0  0  0  0  0  0  0  0  0
   -9.3092    5.0856   -7.7045 C   0  0  0  0  0  0  0  0  0  0  0  0
   -9.2619    6.9610  -14.1728 C   0  0  0  0  0  0  0  0  0  0  0  0
   -6.6533   -1.1045   -9.8991 C   0  0  0  0  0  0  0  0  0  0  0  0
  -10.5014    5.3461  -18.3988 C   0  0  0  0  0  0  0  0  0  0  0  0
   -8.1530    6.2045  -18.9283 C   0  0  0  0  0  0  0  0  0  0  0  0
  -10.6410    6.6871  -14.7789 C   0  0  0  0  0  0  0  0  0  0  0  0
   -6.1835    6.0044  -16.7303 C   0  0  0  0  0  0  0  0  0  0  0  0
   -5.4097    5.2601  -15.6419 C   0  0  0  0  0  0  0  0  0  0  0  0
   -8.9673    4.1304   -6.5551 C   0  0  2  0  0  0  0  0  0  0  0  0
   -9.1352    5.0093  -19.0680 C   0  0  0  0  0  0  0  0  0  0  0  0
   -9.4203    4.7635  -20.5692 C   0  0  0  0  0  0  0  0  0  0  0  0
   -8.5534    3.7026  -18.4912 C   0  0  0  0  0  0  0  0  0  0  0  0
   -8.6717    4.4354   -3.5140 C   0  0  0  0  0  0  0  0  0  0  0  0
   -6.1933    4.5927   -3.7932 C   0  0  0  0  0  0  0  0  0  0  0  0
   -7.4047    2.5030   -4.4652 C   0  0  0  0  0  0  0  0  0  0  0  0
  -10.6626    7.9519  -16.9155 C   0  0  0  0  0  0  0  0  0  0  0  0
   -4.4075    5.4530  -18.4075 C   0  0  0  0  0  0  0  0  0  0  0  0
   -7.7278    4.6324   -5.8265 C   0  0  0  0  0  0  0  0  0  0  0  0
   -7.4859    4.0377   -4.4145 C   0  0  0  0  0  0  0  0  0  0  0  0
   -6.3776    1.2872  -13.2318 N   0  0  0  0  0  0  0  0  0  0  0  0
   -8.8059    4.6754   -8.9304 N   0  0  0  0  0  0  0  0  0  0  0  0
   -8.7579    2.7729   -7.0448 N   0  0  0  0  0  0  0  0  0  0  0  0
   -6.4751   -0.1934  -11.0177 N   0  0  0  0  0  0  0  0  0  0  0  0
  -10.5863    6.6559  -16.2466 N   0  0  0  0  0  0  0  0  0  0  0  0
   -5.8181    5.7079  -18.1265 N   0  0  0  0  0  0  0  0  0  0  0  0
  -10.9908    2.1632   -7.1107 O   0  0  0  0  0  0  0  0  0  0  0  0
   -4.7512    1.0676  -10.1096 O   0  0  0  0  0  0  0  0  0  0  0  0
  -10.3877    4.3539  -16.2411 O   0  0  0  0  0  0  0  0  0  0  0  0
   -6.3433    5.7080  -20.3912 O   0  0  0  0  0  0  0  0  0  0  0  0
   -9.8798    6.1480   -7.4628 O   0  0  0  0  0  0  0  0  0  0  0  0
   -5.7779    3.8791  -15.6842 O   0  0  0  0  0  0  0  0  0  0  0  0
  -11.5154   -0.3084   -7.1242 F   0  0  0  0  0  0  0  0  0  0  0  0
   -8.0586    4.6420  -13.4091 H   0  0  0  0  0  0  0  0  0  0  0  0
  -10.1920    8.0270  -11.8126 H   0  0  0  0  0  0  0  0  0  0  0  0
   -8.6513   -2.9036   -9.4201 H   0  0  0  0  0  0  0  0  0  0  0  0
   -7.8700    3.6979  -11.1583 H   0  0  0  0  0  0  0  0  0  0  0  0
  -10.0225    7.1037   -9.5769 H   0  0  0  0  0  0  0  0  0  0  0  0
   -4.0478    4.3710  -13.5800 H   0  0  0  0  0  0  0  0  0  0  0  0
  -10.7625   -2.5370   -8.2026 H   0  0  0  0  0  0  0  0  0  0  0  0
   -3.9873    3.0173  -11.5431 H   0  0  0  0  0  0  0  0  0  0  0  0
   -7.5312    1.1882   -8.7410 H   0  0  0  0  0  0  0  0  0  0  0  0
   -7.0999    1.7441  -15.1026 H   0  0  0  0  0  0  0  0  0  0  0  0
   -9.0663    8.0411  -14.1363 H   0  0  0  0  0  0  0  0  0  0  0  0
   -8.4777    6.5329  -14.8104 H   0  0  0  0  0  0  0  0  0  0  0  0
   -5.8143   -0.9599   -9.2127 H   0  0  0  0  0  0  0  0  0  0  0  0
   -6.6081   -2.1254  -10.2906 H   0  0  0  0  0  0  0  0  0  0  0  0
  -11.2230    4.5932  -18.7163 H   0  0  0  0  0  0  0  0  0  0  0  0
  -10.8662    6.3127  -18.7591 H   0  0  0  0  0  0  0  0  0  0  0  0
   -8.2190    6.5993  -17.9240 H   0  0  0  0  0  0  0  0  0  0  0  0
   -8.4372    6.9828  -19.6287 H   0  0  0  0  0  0  0  0  0  0  0  0
  -11.0565    5.7378  -14.4128 H   0  0  0  0  0  0  0  0  0  0  0  0
  -11.3486    7.4706  -14.4718 H   0  0  0  0  0  0  0  0  0  0  0  0
   -7.2757    5.8294  -16.6218 H   0  0  0  0  0  0  0  0  0  0  0  0
   -6.0455    7.0947  -16.5700 H   0  0  0  0  0  0  0  0  0  0  0  0
   -4.3327    5.3710  -15.7859 H   0  0  0  0  0  0  0  0  0  0  0  0
   -5.6974    5.7001  -14.6819 H   0  0  0  0  0  0  0  0  0  0  0  0
   -9.8117    4.1263   -5.8489 H   0  0  0  0  0  0  0  0  0  0  0  0
   -8.4893    4.5259  -21.0673 H   0  0  0  0  0  0  0  0  0  0  0  0
   -9.8511    5.6606  -20.9944 H   0  0  0  0  0  0  0  0  0  0  0  0
  -10.1134    3.9376  -20.6625 H   0  0  0  0  0  0  0  0  0  0  0  0
   -7.6073    3.4971  -18.9752 H   0  0  0  0  0  0  0  0  0  0  0  0
   -9.2501    2.8960  -18.6801 H   0  0  0  0  0  0  0  0  0  0  0  0
   -8.4068    3.8252  -17.4257 H   0  0  0  0  0  0  0  0  0  0  0  0
   -9.6187    4.0602   -3.9183 H   0  0  0  0  0  0  0  0  0  0  0  0
   -8.7538    5.5247   -3.4255 H   0  0  0  0  0  0  0  0  0  0  0  0
   -8.5578    4.0279   -2.5030 H   0  0  0  0  0  0  0  0  0  0  0  0
   -5.3132    4.3397   -4.3932 H   0  0  0  0  0  0  0  0  0  0  0  0
   -6.2363    5.6836   -3.7006 H   0  0  0  0  0  0  0  0  0  0  0  0
   -6.0299    4.1807   -2.7907 H   0  0  0  0  0  0  0  0  0  0  0  0
   -6.5726    2.1722   -5.0966 H   0  0  0  0  0  0  0  0  0  0  0  0
   -8.3252    2.0734   -4.8771 H   0  0  0  0  0  0  0  0  0  0  0  0
   -7.2649    2.0708   -3.4690 H   0  0  0  0  0  0  0  0  0  0  0  0
  -11.7155    8.2023  -17.1120 H   0  0  0  0  0  0  0  0  0  0  0  0
  -10.2163    8.7237  -16.2712 H   0  0  0  0  0  0  0  0  0  0  0  0
  -10.1129    7.9061  -17.8672 H   0  0  0  0  0  0  0  0  0  0  0  0
   -3.8700    6.4096  -18.4854 H   0  0  0  0  0  0  0  0  0  0  0  0
   -3.9739    4.8542  -17.5930 H   0  0  0  0  0  0  0  0  0  0  0  0
   -4.3162    4.9030  -19.3557 H   0  0  0  0  0  0  0  0  0  0  0  0
   -7.7970    5.7260   -5.7504 H   0  0  0  0  0  0  0  0  0  0  0  0
   -6.8539    4.4261   -6.4591 H   0  0  0  0  0  0  0  0  0  0  0  0
   -8.2724    3.8061   -8.9289 H   0  0  0  0  0  0  0  0  0  0  0  0
   -7.8172    2.4523   -7.1923 H   0  0  0  0  0  0  0  0  0  0  0  0
   -7.0842   -0.3091  -11.8225 H   0  0  0  0  0  0  0  0  0  0  0  0
  1  4  1  0  0  0  0
  1 12  2  0  0  0  0
  2  5  2  0  0  0  0
  2 12  1  0  0  0  0
  3  7  1  0  0  0  0
  3 13  2  0  0  0  0
  4 14  2  0  0  0  0
  5 14  1  0  0  0  0
  6  8  1  0  0  0  0
  6 15  2  0  0  0  0
  7 16  2  0  0  0  0
  8 17  2  0  0  0  0
  9 11  2  0  0  0  0
  9 13  1  0  0  0  0
 10 15  1  0  0  0  0
 10 41  2  0  0  0  0
 11 16  1  0  0  0  0
 11 18  1  0  0  0  0
 12 23  1  0  0  0  0
 13 24  1  0  0  0  0
 14 42  1  0  0  0  0
 15 52  1  0  0  0  0
 16 53  1  0  0  0  0
 17 19  1  0  0  0  0
 17 41  1  0  0  0  0
 18 43  1  0  0  0  0
 18 47  2  0  0  0  0
 19 44  1  0  0  0  0
 19 48  2  0  0  0  0
 20 25  1  0  0  0  0
 20 45  1  0  0  0  0
 20 49  2  0  0  0  0
 21 26  1  0  0  0  0
 21 46  1  0  0  0  0
 21 50  2  0  0  0  0
 22 30  1  0  0  0  0
 22 42  1  0  0  0  0
 22 51  2  0  0  0  0
 23 27  1  0  0  0  0
 24 44  1  0  0  0  0
 25 31  1  0  0  0  0
 26 31  1  0  0  0  0
 27 45  1  0  0  0  0
 28 29  1  0  0  0  0
 28 46  1  0  0  0  0
 29 52  1  0  0  0  0
 30 39  1  1  0  0  0
 30 43  1  0  0  0  0
 31 32  1  0  0  0  0
 31 33  1  0  0  0  0
 34 40  1  0  0  0  0
 35 40  1  0  0  0  0
 36 40  1  0  0  0  0
 37 45  1  0  0  0  0
 38 46  1  0  0  0  0
 39 40  1  0  0  0  0
  1 54  1  0  0  0  0
  2 55  1  0  0  0  0
  3 56  1  0  0  0  0
  4 57  1  0  0  0  0
  5 58  1  0  0  0  0
  6 59  1  0  0  0  0
  7 60  1  0  0  0  0
  8 61  1  0  0  0  0
  9 62  1  0  0  0  0
 10 63  1  0  0  0  0
 23 64  1  0  0  0  0
 23 65  1  0  0  0  0
 24 66  1  0  0  0  0
 24 67  1  0  0  0  0
 25 68  1  0  0  0  0
 25 69  1  0  0  0  0
 26 70  1  0  0  0  0
 26 71  1  0  0  0  0
 27 72  1  0  0  0  0
 27 73  1  0  0  0  0
 28 74  1  0  0  0  0
 28 75  1  0  0  0  0
 29 76  1  0  0  0  0
 29 77  1  0  0  0  0
 30 78  1  0  0  0  0
 32 79  1  0  0  0  0
 32 80  1  0  0  0  0
 32 81  1  0  0  0  0
 33 82  1  0  0  0  0
 33 83  1  0  0  0  0
 33 84  1  0  0  0  0
 34 85  1  0  0  0  0
 34 86  1  0  0  0  0
 34 87  1  0  0  0  0
 35 88  1  0  0  0  0
 35 89  1  0  0  0  0
 35 90  1  0  0  0  0
 36 91  1  0  0  0  0
 36 92  1  0  0  0  0
 36 93  1  0  0  0  0
 37 94  1  0  0  0  0
 37 95  1  0  0  0  0
 37 96  1  0  0  0  0
 38 97  1  0  0  0  0
 38 98  1  0  0  0  0
 38 99  1  0  0  0  0
 39100  1  0  0  0  0
 39101  1  0  0  0  0
 42102  1  0  0  0  0
 43103  1  0  0  0  0
 44104  1  0  0  0  0
M  END
> <id>
EN300-6482254

> <smiles>
CN1CCOC=2C=CC(=NC2)C(=O)NCC=3C=CC(F)=C(C3)C(=O)N[C@@H](CC(C)(C)C)C(=O)NC=4C=CC(CCN(C)C(=O)CC(C)(C)CC1=O)=CC4.OC(=O)C(F)(F)F

> <MDLNUMBER>
MFCD31668406

> <IUPAC Name>
(12S)-12-(2,2-dimethylpropyl)-8-fluoro-21,24,24,27-tetramethyl-30-oxa-3,11,14,21,27,33-hexaazatetracyclo[29.2.2.2^{15,18}.1^{5,9}]octatriaconta-1(33),5(38),6,8,15,17,31,34,36-nonaene-2,10,13,22,26-pentone; trifluoroacetic acid

> <Purity>
95

> <URL>
https://www.enaminestore.com/catalog/EN300-6482254

> <Saltdate>
OC(=O)C(F)(F)F

> <ROCS_ShapeQuery>
_x0404_0B

> <ROCS_TanimotoCombo>
0.448 

> <ROCS_ShapeTanimoto>
0.368 

> <ROCS_ColorTanimoto>
0.079 

> <ROCS_RefTversky>
0.372 

> <ROCS_RefColorTversky>
0.092 

> <ROCS_RefTverskyCombo>
0.464 

> <ROCS_FitTversky>
0.972 

> <ROCS_FitColorTversky>
0.369 

> <ROCS_FitTverskyCombo>
1.341 

> <ROCS_ColorScore>
-6.661

> <ROCS_Overlap>
2509.833

> <ROCS_Rank>
120                 

$$$$
untitled-dbase-110135_35
  -OEChem-08222312023D

 41 44  0     0  0  0  0  0  0999 V2000
  -10.0894    4.6776  -17.6788 C   0  0  0  0  0  0  0  0  0  0  0  0
   -9.4346    4.2634  -18.8422 C   0  0  0  0  0  0  0  0  0  0  0  0
   -7.5248    6.2545  -15.6834 C   0  0  0  0  0  0  0  0  0  0  0  0
   -7.9608    5.5787  -16.8574 C   0  0  0  0  0  0  0  0  0  0  0  0
   -7.3222    5.1519  -18.0387 C   0  0  0  0  0  0  0  0  0  0  0  0
   -9.3269    5.3322  -16.7050 C   0  0  0  0  0  0  0  0  0  0  0  0
   -8.0724    4.4958  -19.0215 C   0  0  0  0  0  0  0  0  0  0  0  0
   -8.6145    6.4026  -14.8566 C   0  0  0  0  0  0  0  0  0  0  0  0
   -9.1677    3.1120   -8.6709 C   0  0  0  0  0  0  0  0  0  0  0  0
   -8.6741    7.0366  -13.5338 C   0  0  0  0  0  0  0  0  0  0  0  0
  -10.1140    3.9377   -9.5602 C   0  0  0  0  0  0  0  0  0  0  0  0
   -8.6184    3.9518  -11.7146 C   0  0  0  0  0  0  0  0  0  0  0  0
   -8.4506    5.8956  -10.0906 C   0  0  0  0  0  0  0  0  0  0  0  0
   -9.4200    4.8477  -12.6588 C   0  0  0  0  0  0  0  0  0  0  0  0
   -9.2615    6.7438  -11.0697 C   0  0  0  0  0  0  0  0  0  0  0  0
   -8.8187    4.4249  -10.2764 C   0  0  0  0  0  0  0  0  0  0  0  0
   -5.8574    5.3937  -18.2402 C   0  0  0  0  0  0  0  0  0  0  0  0
   -9.6966    5.8430  -15.4813 N   0  0  0  0  0  0  0  0  0  0  0  0
   -8.0803    3.5789   -9.3402 N   0  0  0  0  0  0  0  0  0  0  0  0
   -9.0819    6.2582  -12.4474 N   0  0  0  0  0  0  0  0  0  0  0  0
   -9.2862    2.3453   -7.7430 O   0  0  0  0  0  0  0  0  0  0  0  0
   -8.3646    8.2262  -13.4878 O   0  0  0  0  0  0  0  0  0  0  0  0
   -7.2730    3.8957  -20.6378 Br  0  0  0  0  0  0  0  0  0  0  0  0
  -11.1499    4.4959  -17.5402 H   0  0  0  0  0  0  0  0  0  0  0  0
  -10.0165    3.7532  -19.6071 H   0  0  0  0  0  0  0  0  0  0  0  0
   -6.5211    6.5962  -15.4688 H   0  0  0  0  0  0  0  0  0  0  0  0
  -10.7963    3.3268  -10.1575 H   0  0  0  0  0  0  0  0  0  0  0  0
  -10.6780    4.6958   -9.0100 H   0  0  0  0  0  0  0  0  0  0  0  0
   -8.9361    2.9098  -11.8397 H   0  0  0  0  0  0  0  0  0  0  0  0
   -7.5559    3.9967  -11.9872 H   0  0  0  0  0  0  0  0  0  0  0  0
   -7.3798    6.0488  -10.2770 H   0  0  0  0  0  0  0  0  0  0  0  0
   -8.6486    6.2294   -9.0648 H   0  0  0  0  0  0  0  0  0  0  0  0
   -9.2353    4.5516  -13.6960 H   0  0  0  0  0  0  0  0  0  0  0  0
  -10.4952    4.7424  -12.4717 H   0  0  0  0  0  0  0  0  0  0  0  0
  -10.3325    6.6743  -10.8450 H   0  0  0  0  0  0  0  0  0  0  0  0
   -8.9750    7.7932  -10.9666 H   0  0  0  0  0  0  0  0  0  0  0  0
   -5.2807    4.5492  -17.8501 H   0  0  0  0  0  0  0  0  0  0  0  0
   -5.6239    5.5205  -19.3028 H   0  0  0  0  0  0  0  0  0  0  0  0
   -5.5372    6.3073  -17.7277 H   0  0  0  0  0  0  0  0  0  0  0  0
  -10.6331    5.8088  -15.1023 H   0  0  0  0  0  0  0  0  0  0  0  0
   -7.0975    3.3841   -9.2056 H   0  0  0  0  0  0  0  0  0  0  0  0
  1  2  2  0  0  0  0
  1  6  1  0  0  0  0
  2  7  1  0  0  0  0
  3  4  1  0  0  0  0
  3  8  2  0  0  0  0
  4  5  1  0  0  0  0
  4  6  2  0  0  0  0
  5  7  2  0  0  0  0
  5 17  1  0  0  0  0
  6 18  1  0  0  0  0
  7 23  1  0  0  0  0
  8 10  1  0  0  0  0
  8 18  1  0  0  0  0
  9 11  1  0  0  0  0
  9 19  1  0  0  0  0
  9 21  2  0  0  0  0
 10 20  1  0  0  0  0
 10 22  2  0  0  0  0
 11 16  1  0  0  0  0
 12 14  1  0  0  0  0
 12 16  1  0  0  0  0
 13 15  1  0  0  0  0
 13 16  1  0  0  0  0
 14 20  1  0  0  0  0
 15 20  1  0  0  0  0
 16 19  1  0  0  0  0
  1 24  1  0  0  0  0
  2 25  1  0  0  0  0
  3 26  1  0  0  0  0
 11 27  1  0  0  0  0
 11 28  1  0  0  0  0
 12 29  1  0  0  0  0
 12 30  1  0  0  0  0
 13 31  1  0  0  0  0
 13 32  1  0  0  0  0
 14 33  1  0  0  0  0
 14 34  1  0  0  0  0
 15 35  1  0  0  0  0
 15 36  1  0  0  0  0
 17 37  1  0  0  0  0
 17 38  1  0  0  0  0
 17 39  1  0  0  0  0
 18 40  1  0  0  0  0
 19 41  1  0  0  0  0
M  END
> <id>
EN300-26605389

> <smiles>
CC=1C(Br)=CC=C2NC(=CC12)C(=O)N3CCC4(CC(=O)N4)CC3

> <IUPAC Name>
7-(5-bromo-4-methyl-1H-indole-2-carbonyl)-1,7-diazaspiro[3.5]nonan-2-one

> <CAS>
2411258-17-6

> <URL>
https://www.enaminestore.com/catalog/EN300-26605389

> <ROCS_ShapeQuery>
_x0404_0B

> <ROCS_TanimotoCombo>
0.448 

> <ROCS_ShapeTanimoto>
0.385 

> <ROCS_ColorTanimoto>
0.063 

> <ROCS_RefTversky>
0.334 

> <ROCS_RefColorTversky>
0.069 

> <ROCS_RefTverskyCombo>
0.403 

> <ROCS_FitTversky>
1.657 

> <ROCS_FitColorTversky>
0.405 

> <ROCS_FitTverskyCombo>
2.062 

> <ROCS_ColorScore>
-5.008

> <ROCS_Overlap>
2228.870

> <ROCS_Rank>
121                 

$$$$
untitled-dbase-172598_500
  -OEChem-08222312023D

 56 58  0     0  0  0  0  0  0999 V2000
   -9.1839    2.3794   -9.1939 C   0  0  0  0  0  0  0  0  0  0  0  0
   -8.8874    2.8228  -10.4977 C   0  0  0  0  0  0  0  0  0  0  0  0
   -9.3790    3.2902   -8.1422 C   0  0  0  0  0  0  0  0  0  0  0  0
   -8.6430    7.0312  -10.9530 C   0  0  0  0  0  0  0  0  0  0  0  0
   -8.4279    6.2230  -12.0817 C   0  0  0  0  0  0  0  0  0  0  0  0
   -8.7817    4.2003  -10.7658 C   0  0  0  0  0  0  0  0  0  0  0  0
   -8.9858    5.0556   -9.6809 C   0  0  0  0  0  0  0  0  0  0  0  0
   -9.2747    4.6449   -8.4066 C   0  0  0  0  0  0  0  0  0  0  0  0
   -8.9252    6.4226   -9.7422 C   0  0  0  0  0  0  0  0  0  0  0  0
   -8.4949    4.8185  -11.9972 C   0  0  0  0  0  0  0  0  0  0  0  0
   -8.9145    5.1537  -15.2152 C   0  0  0  0  0  0  0  0  0  0  0  0
   -7.2537    3.0824  -13.3619 C   0  0  0  0  0  0  0  0  0  0  0  0
   -9.4342    5.8137   -7.4803 C   0  0  0  0  0  0  0  0  0  0  0  0
   -9.1922    7.0406   -8.4019 C   0  0  0  0  0  0  0  0  0  0  0  0
   -8.1942    3.9518  -17.4232 C   0  0  0  0  0  0  0  0  0  0  0  0
  -10.5745    4.0800  -18.2151 C   0  0  0  0  0  0  0  0  0  0  0  0
   -9.1477    6.1469  -18.2024 C   0  0  0  0  0  0  0  0  0  0  0  0
   -4.6379    2.3829  -14.3122 C   0  0  0  0  0  0  0  0  0  0  0  0
   -3.8540    2.8873  -11.9798 C   0  0  0  0  0  0  0  0  0  0  0  0
   -5.4989    1.0303  -12.3722 C   0  0  0  0  0  0  0  0  0  0  0  0
   -9.4472    4.8228  -17.5012 C   0  0  0  0  0  0  0  0  0  0  0  0
   -5.0252    2.4075  -12.8343 C   0  0  0  0  0  0  0  0  0  0  0  0
   -9.1575    4.1989  -14.2493 N   0  0  0  0  0  0  0  0  0  0  0  0
   -8.2723    4.0621  -13.1511 N   0  0  0  0  0  0  0  0  0  0  0  0
   -7.9684    5.9351  -15.2260 O   0  0  0  0  0  0  0  0  0  0  0  0
   -7.3569    2.1045  -14.0969 O   0  0  0  0  0  0  0  0  0  0  0  0
   -9.8911    5.1028  -16.1688 O   0  0  0  0  0  0  0  0  0  0  0  0
   -6.0977    3.3410  -12.6597 O   0  0  0  0  0  0  0  0  0  0  0  0
   -9.2632    1.3129   -8.9986 H   0  0  0  0  0  0  0  0  0  0  0  0
   -8.7432    2.0860  -11.2835 H   0  0  0  0  0  0  0  0  0  0  0  0
   -9.6066    2.9314   -7.1440 H   0  0  0  0  0  0  0  0  0  0  0  0
   -8.5883    8.1117  -11.0358 H   0  0  0  0  0  0  0  0  0  0  0  0
   -8.2069    6.7019  -13.0336 H   0  0  0  0  0  0  0  0  0  0  0  0
  -10.4410    5.8423   -7.0510 H   0  0  0  0  0  0  0  0  0  0  0  0
   -8.6948    5.7822   -6.6734 H   0  0  0  0  0  0  0  0  0  0  0  0
   -8.3311    7.6222   -8.0574 H   0  0  0  0  0  0  0  0  0  0  0  0
  -10.0776    7.6838   -8.4330 H   0  0  0  0  0  0  0  0  0  0  0  0
   -7.3827    4.4815  -16.9114 H   0  0  0  0  0  0  0  0  0  0  0  0
   -8.3870    3.0143  -16.8917 H   0  0  0  0  0  0  0  0  0  0  0  0
   -7.8223    3.7112  -18.4257 H   0  0  0  0  0  0  0  0  0  0  0  0
  -11.4755    4.7012  -18.2733 H   0  0  0  0  0  0  0  0  0  0  0  0
  -10.8576    3.1765  -17.6630 H   0  0  0  0  0  0  0  0  0  0  0  0
  -10.2872    3.7898  -19.2309 H   0  0  0  0  0  0  0  0  0  0  0  0
  -10.0463    6.7718  -18.2585 H   0  0  0  0  0  0  0  0  0  0  0  0
   -8.3664    6.7109  -17.6826 H   0  0  0  0  0  0  0  0  0  0  0  0
   -8.8248    5.9762  -19.2358 H   0  0  0  0  0  0  0  0  0  0  0  0
   -5.4760    2.0391  -14.9290 H   0  0  0  0  0  0  0  0  0  0  0  0
   -4.3296    3.3724  -14.6650 H   0  0  0  0  0  0  0  0  0  0  0  0
   -3.8153    1.6805  -14.4892 H   0  0  0  0  0  0  0  0  0  0  0  0
   -4.1274    2.9065  -10.9186 H   0  0  0  0  0  0  0  0  0  0  0  0
   -3.5720    3.9127  -12.2445 H   0  0  0  0  0  0  0  0  0  0  0  0
   -2.9761    2.2442  -12.1000 H   0  0  0  0  0  0  0  0  0  0  0  0
   -5.7768    1.0477  -11.3121 H   0  0  0  0  0  0  0  0  0  0  0  0
   -6.3626    0.6859  -12.9502 H   0  0  0  0  0  0  0  0  0  0  0  0
   -4.6970    0.2895  -12.4695 H   0  0  0  0  0  0  0  0  0  0  0  0
   -9.9609    3.5799  -14.2689 H   0  0  0  0  0  0  0  0  0  0  0  0
  1  2  1  0  0  0  0
  1  3  2  0  0  0  0
  2  6  2  0  0  0  0
  3  8  1  0  0  0  0
  4  5  1  0  0  0  0
  4  9  2  0  0  0  0
  5 10  2  0  0  0  0
  6  7  1  0  0  0  0
  6 10  1  0  0  0  0
  7  8  2  0  0  0  0
  7  9  1  0  0  0  0
  8 13  1  0  0  0  0
  9 14  1  0  0  0  0
 10 24  1  0  0  0  0
 11 23  1  0  0  0  0
 11 25  2  0  0  0  0
 11 27  1  0  0  0  0
 12 24  1  0  0  0  0
 12 26  2  0  0  0  0
 12 28  1  0  0  0  0
 13 14  1  0  0  0  0
 15 21  1  0  0  0  0
 16 21  1  0  0  0  0
 17 21  1  0  0  0  0
 18 22  1  0  0  0  0
 19 22  1  0  0  0  0
 20 22  1  0  0  0  0
 21 27  1  0  0  0  0
 22 28  1  0  0  0  0
 23 24  1  0  0  0  0
  1 29  1  0  0  0  0
  2 30  1  0  0  0  0
  3 31  1  0  0  0  0
  4 32  1  0  0  0  0
  5 33  1  0  0  0  0
 13 34  1  0  0  0  0
 13 35  1  0  0  0  0
 14 36  1  0  0  0  0
 14 37  1  0  0  0  0
 15 38  1  0  0  0  0
 15 39  1  0  0  0  0
 15 40  1  0  0  0  0
 16 41  1  0  0  0  0
 16 42  1  0  0  0  0
 16 43  1  0  0  0  0
 17 44  1  0  0  0  0
 17 45  1  0  0  0  0
 17 46  1  0  0  0  0
 18 47  1  0  0  0  0
 18 48  1  0  0  0  0
 18 49  1  0  0  0  0
 19 50  1  0  0  0  0
 19 51  1  0  0  0  0
 19 52  1  0  0  0  0
 20 53  1  0  0  0  0
 20 54  1  0  0  0  0
 20 55  1  0  0  0  0
 23 56  1  0  0  0  0
M  END
> <id>
EN300-1666581

> <smiles>
CC(C)(C)OC(=O)NN(C(=O)OC(C)(C)C)C=1C=CC=2CCC3=CC=CC1C32

> <MDLNUMBER>
MFCD31689969

> <IUPAC Name>
N'-[(tert-butoxy)carbonyl]-N-(1,2-dihydroacenaphthylen-5-yl)(tert-butoxy)carbohydrazide

> <CAS>
2225136-39-8

> <Purity>
95

> <URL>
https://www.enaminestore.com/catalog/EN300-1666581

> <ROCS_ShapeQuery>
_x0404_0B

> <ROCS_TanimotoCombo>
0.448 

> <ROCS_ShapeTanimoto>
0.350 

> <ROCS_ColorTanimoto>
0.097 

> <ROCS_RefTversky>
0.320 

> <ROCS_RefColorTversky>
0.102 

> <ROCS_RefTverskyCombo>
0.423 

> <ROCS_FitTversky>
1.367 

> <ROCS_FitColorTversky>
0.648 

> <ROCS_FitTverskyCombo>
2.015 

> <ROCS_ColorScore>
-7.401

> <ROCS_Overlap>
2142.775

> <ROCS_Rank>
122                 

$$$$
untitled-dbase-103710_200
  -OEChem-08222312023D

 59 61  0     1  0  0  0  0  0999 V2000
   -8.4531    5.4346  -15.3084 B   0  0  0  0  0  0  0  0  0  0  0  0
   -8.2201    6.7659  -13.0595 C   0  0  0  0  0  0  0  0  0  0  0  0
   -8.7097    5.6660  -13.6547 C   0  0  0  0  0  0  0  0  0  0  0  0
   -8.6764    5.8376   -9.4704 C   0  0  0  0  0  0  0  0  0  0  0  0
   -8.3817    7.0442  -11.5941 C   0  0  0  0  0  0  0  0  0  0  0  0
   -9.5014    4.6209  -12.9121 C   0  0  0  0  0  0  0  0  0  0  0  0
   -8.2738    2.0489   -9.0618 C   0  0  0  0  0  0  0  0  0  0  0  0
   -9.7407    1.8730   -8.6601 C   0  0  0  0  0  0  0  0  0  0  0  0
   -9.9574    3.8662   -7.0219 C   0  0  0  0  0  0  0  0  0  0  0  0
   -9.9291    5.1096  -11.5268 C   0  0  0  0  0  0  0  0  0  0  0  0
   -7.8895    3.4380   -9.5702 C   0  0  0  0  0  0  0  0  0  0  0  0
   -8.6079    4.4660   -7.4157 C   0  0  0  0  0  0  0  0  0  0  0  0
  -10.0873    2.3485   -7.2339 C   0  0  1  0  0  0  0  0  0  0  0  0
   -7.5660    5.6868  -17.4032 C   0  0  0  0  0  0  0  0  0  0  0  0
   -8.6871    4.5938  -17.4244 C   0  0  0  0  0  0  0  0  0  0  0  0
  -11.5199    1.9195   -6.8850 C   0  0  0  0  0  0  0  0  0  0  0  0
   -7.9700    7.0439  -18.0224 C   0  0  0  0  0  0  0  0  0  0  0  0
   -6.2379    5.2553  -18.0412 C   0  0  0  0  0  0  0  0  0  0  0  0
   -8.1741    3.1385  -17.5085 C   0  0  0  0  0  0  0  0  0  0  0  0
   -9.7463    4.7834  -18.5194 C   0  0  0  0  0  0  0  0  0  0  0  0
   -8.8594    5.8668  -10.8643 N   0  0  0  0  0  0  0  0  0  0  0  0
   -8.5001    4.5727   -8.8724 N   0  0  0  0  0  0  0  0  0  0  0  0
   -8.6635    6.8838   -8.8093 O   0  0  0  0  0  0  0  0  0  0  0  0
   -7.3312    5.9196  -15.9764 O   0  0  0  0  0  0  0  0  0  0  0  0
   -9.3448    4.7421  -16.1242 O   0  0  0  0  0  0  0  0  0  0  0  0
   -9.2156    1.7047   -6.2977 O   0  0  0  0  0  0  0  0  0  0  0  0
   -7.6608    7.5058  -13.6258 H   0  0  0  0  0  0  0  0  0  0  0  0
   -7.4047    7.3529  -11.2054 H   0  0  0  0  0  0  0  0  0  0  0  0
   -9.1041    7.8581  -11.4500 H   0  0  0  0  0  0  0  0  0  0  0  0
  -10.4055    4.3430  -13.4734 H   0  0  0  0  0  0  0  0  0  0  0  0
   -8.8925    3.7099  -12.8085 H   0  0  0  0  0  0  0  0  0  0  0  0
   -7.6609    1.8322   -8.1720 H   0  0  0  0  0  0  0  0  0  0  0  0
   -7.9928    1.2771   -9.7949 H   0  0  0  0  0  0  0  0  0  0  0  0
  -10.3617    2.4069   -9.3767 H   0  0  0  0  0  0  0  0  0  0  0  0
  -10.0088    0.8229   -8.7602 H   0  0  0  0  0  0  0  0  0  0  0  0
  -10.1793    4.1065   -5.9851 H   0  0  0  0  0  0  0  0  0  0  0  0
  -10.7226    4.3757   -7.6050 H   0  0  0  0  0  0  0  0  0  0  0  0
  -10.7949    5.7830  -11.6072 H   0  0  0  0  0  0  0  0  0  0  0  0
  -10.2433    4.2607  -10.9051 H   0  0  0  0  0  0  0  0  0  0  0  0
   -6.7856    3.5783   -9.5849 H   0  0  0  0  0  0  0  0  0  0  0  0
   -8.1908    3.5062  -10.6385 H   0  0  0  0  0  0  0  0  0  0  0  0
   -8.5212    5.4356   -6.9766 H   0  0  0  0  0  0  0  0  0  0  0  0
   -7.8361    3.8075   -7.0758 H   0  0  0  0  0  0  0  0  0  0  0  0
  -11.7675    2.2533   -5.8797 H   0  0  0  0  0  0  0  0  0  0  0  0
  -11.5996    0.8357   -6.9331 H   0  0  0  0  0  0  0  0  0  0  0  0
  -12.2174    2.3626   -7.5925 H   0  0  0  0  0  0  0  0  0  0  0  0
   -7.1294    7.7234  -17.9577 H   0  0  0  0  0  0  0  0  0  0  0  0
   -8.8128    7.4435  -17.4727 H   0  0  0  0  0  0  0  0  0  0  0  0
   -8.2429    6.8894  -19.0589 H   0  0  0  0  0  0  0  0  0  0  0  0
   -5.5256    6.0729  -17.9805 H   0  0  0  0  0  0  0  0  0  0  0  0
   -6.4050    4.9962  -19.0826 H   0  0  0  0  0  0  0  0  0  0  0  0
   -5.8461    4.3923  -17.5107 H   0  0  0  0  0  0  0  0  0  0  0  0
   -9.0233    2.4669  -17.5170 H   0  0  0  0  0  0  0  0  0  0  0  0
   -7.5501    2.9360  -16.6471 H   0  0  0  0  0  0  0  0  0  0  0  0
   -7.5993    3.0210  -18.4186 H   0  0  0  0  0  0  0  0  0  0  0  0
  -10.4779    3.9832  -18.4566 H   0  0  0  0  0  0  0  0  0  0  0  0
   -9.2667    4.7610  -19.4936 H   0  0  0  0  0  0  0  0  0  0  0  0
  -10.2419    5.7399  -18.3807 H   0  0  0  0  0  0  0  0  0  0  0  0
   -9.4753    2.0365   -5.4291 H   0  0  0  0  0  0  0  0  0  0  0  0
  1  3  1  0  0  0  0
  1 24  1  0  0  0  0
  1 25  1  0  0  0  0
  2  3  2  0  0  0  0
  2  5  1  0  0  0  0
  3  6  1  0  0  0  0
  4 21  1  0  0  0  0
  4 22  1  0  0  0  0
  4 23  2  0  0  0  0
  5 21  1  0  0  0  0
  6 10  1  0  0  0  0
  7  8  1  0  0  0  0
  7 11  1  0  0  0  0
  8 13  1  0  0  0  0
  9 12  1  0  0  0  0
  9 13  1  0  0  0  0
 10 21  1  0  0  0  0
 11 22  1  0  0  0  0
 12 22  1  0  0  0  0
 13 16  1  0  0  0  0
 13 26  1  0  0  0  0
 14 15  1  0  0  0  0
 14 17  1  0  0  0  0
 14 18  1  0  0  0  0
 14 24  1  0  0  0  0
 15 19  1  0  0  0  0
 15 20  1  0  0  0  0
 15 25  1  0  0  0  0
  2 27  1  0  0  0  0
  5 28  1  0  0  0  0
  5 29  1  0  0  0  0
  6 30  1  0  0  0  0
  6 31  1  0  0  0  0
  7 32  1  0  0  0  0
  7 33  1  0  0  0  0
  8 34  1  0  0  0  0
  8 35  1  0  0  0  0
  9 36  1  0  0  0  0
  9 37  1  0  0  0  0
 10 38  1  0  0  0  0
 10 39  1  0  0  0  0
 11 40  1  0  0  0  0
 11 41  1  0  0  0  0
 12 42  1  0  0  0  0
 12 43  1  0  0  0  0
 16 44  1  0  0  0  0
 16 45  1  0  0  0  0
 16 46  1  0  0  0  0
 17 47  1  0  0  0  0
 17 48  1  0  0  0  0
 17 49  1  0  0  0  0
 18 50  1  0  0  0  0
 18 51  1  0  0  0  0
 18 52  1  0  0  0  0
 19 53  1  0  0  0  0
 19 54  1  0  0  0  0
 19 55  1  0  0  0  0
 20 56  1  0  0  0  0
 20 57  1  0  0  0  0
 20 58  1  0  0  0  0
 26 59  1  0  0  0  0
M  END
> <id>
EN300-6735362

> <smiles>
CC1(C)OB(OC1(C)C)C2=CCN(CC2)C(=O)N3CCCC(C)(O)CC3

> <MDLNUMBER>
MFCD32858441

> <IUPAC Name>
4-methyl-1-[4-(tetramethyl-1,3,2-dioxaborolan-2-yl)-1,2,3,6-tetrahydropyridine-1-carbonyl]azepan-4-ol

> <URL>
https://www.enaminestore.com/catalog/EN300-6735362

> <ROCS_ShapeQuery>
_x0404_0B

> <ROCS_TanimotoCombo>
0.447 

> <ROCS_ShapeTanimoto>
0.394 

> <ROCS_ColorTanimoto>
0.053 

> <ROCS_RefTversky>
0.343 

> <ROCS_RefColorTversky>
0.058 

> <ROCS_RefTverskyCombo>
0.401 

> <ROCS_FitTversky>
1.610 

> <ROCS_FitColorTversky>
0.370 

> <ROCS_FitTverskyCombo>
1.979 

> <ROCS_ColorScore>
-4.209

> <ROCS_Overlap>
2292.681

> <ROCS_Rank>
123                 

$$$$
untitled-dbase-39266_1386
  -OEChem-08222312023D

 61 63  0     1  0  0  0  0  0999 V2000
   -9.1140    4.2263  -11.9318 C   0  0  0  0  0  0  0  0  0  0  0  0
   -8.4319    6.8760  -11.4279 C   0  0  0  0  0  0  0  0  0  0  0  0
   -8.8355    4.6334  -10.6296 C   0  0  0  0  0  0  0  0  0  0  0  0
   -8.7368    6.4898  -12.7441 C   0  0  0  0  0  0  0  0  0  0  0  0
   -9.0454    5.1430  -12.9867 C   0  0  0  0  0  0  0  0  0  0  0  0
   -8.4864    5.9564  -10.3786 C   0  0  0  0  0  0  0  0  0  0  0  0
   -8.8950    3.6716   -9.5405 C   0  0  0  0  0  0  0  0  0  0  0  0
   -6.1538    5.3387  -17.8492 C   0  0  0  0  0  0  0  0  0  0  0  0
   -9.5773    4.8457  -16.6009 C   0  0  0  0  0  0  0  0  0  0  0  0
   -9.3129    6.8972  -15.1426 C   0  0  0  0  0  0  0  0  0  0  0  0
   -8.6380    5.2182  -17.7351 C   0  0  0  0  0  0  0  0  0  0  0  0
   -7.4149    5.2212  -15.6610 C   0  0  0  0  0  0  0  0  0  0  0  0
   -8.6748    7.4866  -13.8787 C   0  0  1  0  0  0  0  0  0  0  0  0
   -8.9045    5.4307  -15.3410 C   0  0  2  0  0  0  0  0  0  0  0  0
   -8.7900    2.2276   -7.0592 C   0  0  0  0  0  0  0  0  0  0  0  0
   -8.7196    4.4886   -5.9674 C   0  0  0  0  0  0  0  0  0  0  0  0
  -10.7245    3.8160   -7.3224 C   0  0  0  0  0  0  0  0  0  0  0  0
   -3.4928    5.5485  -18.8703 C   0  0  0  0  0  0  0  0  0  0  0  0
   -2.7510    4.9388  -16.5493 C   0  0  0  0  0  0  0  0  0  0  0  0
   -4.1242    3.3182  -17.8895 C   0  0  0  0  0  0  0  0  0  0  0  0
   -9.2086    3.6925   -7.1754 C   0  0  0  0  0  0  0  0  0  0  0  0
   -3.8564    4.7930  -17.5929 C   0  0  0  0  0  0  0  0  0  0  0  0
   -7.3260    5.2667  -17.1159 N   0  0  0  0  0  0  0  0  0  0  0  0
   -9.3520    8.7535  -13.5811 N   0  0  0  0  0  0  0  0  0  0  0  0
   -9.1834    2.4752   -9.6776 O   0  0  0  0  0  0  0  0  0  0  0  0
   -6.1085    5.3682  -19.0770 O   0  0  0  0  0  0  0  0  0  0  0  0
   -9.3124    4.6283  -14.2285 O   0  0  0  0  0  0  0  0  0  0  0  0
   -8.5907    4.2520   -8.3394 O   0  0  0  0  0  0  0  0  0  0  0  0
   -5.0463    5.3712  -17.0446 O   0  0  0  0  0  0  0  0  0  0  0  0
   -8.1999    6.3605   -9.1330 F   0  0  0  0  0  0  0  0  0  0  0  0
   -9.3736    3.1891  -12.1344 H   0  0  0  0  0  0  0  0  0  0  0  0
   -8.1507    7.9025  -11.2051 H   0  0  0  0  0  0  0  0  0  0  0  0
  -10.5596    5.3101  -16.7697 H   0  0  0  0  0  0  0  0  0  0  0  0
   -9.7115    3.7578  -16.5397 H   0  0  0  0  0  0  0  0  0  0  0  0
  -10.4107    6.9408  -15.0585 H   0  0  0  0  0  0  0  0  0  0  0  0
   -9.0383    7.5004  -16.0199 H   0  0  0  0  0  0  0  0  0  0  0  0
   -8.6121    4.4455  -18.5114 H   0  0  0  0  0  0  0  0  0  0  0  0
   -8.8839    6.1767  -18.2017 H   0  0  0  0  0  0  0  0  0  0  0  0
   -6.7900    6.0375  -15.2757 H   0  0  0  0  0  0  0  0  0  0  0  0
   -7.0136    4.2654  -15.3035 H   0  0  0  0  0  0  0  0  0  0  0  0
   -7.6211    7.7055  -14.0738 H   0  0  0  0  0  0  0  0  0  0  0  0
   -9.1391    1.6528   -7.9245 H   0  0  0  0  0  0  0  0  0  0  0  0
   -7.7024    2.1233   -6.9883 H   0  0  0  0  0  0  0  0  0  0  0  0
   -9.2407    1.7610   -6.1758 H   0  0  0  0  0  0  0  0  0  0  0  0
   -9.0178    5.5403   -6.0465 H   0  0  0  0  0  0  0  0  0  0  0  0
   -7.6250    4.4814   -5.9123 H   0  0  0  0  0  0  0  0  0  0  0  0
   -9.1166    4.0853   -5.0302 H   0  0  0  0  0  0  0  0  0  0  0  0
  -11.0251    4.8666   -7.4057 H   0  0  0  0  0  0  0  0  0  0  0  0
  -11.0889    3.2812   -8.2055 H   0  0  0  0  0  0  0  0  0  0  0  0
  -11.2354    3.4174   -6.4384 H   0  0  0  0  0  0  0  0  0  0  0  0
   -4.2838    5.4463  -19.6219 H   0  0  0  0  0  0  0  0  0  0  0  0
   -3.3324    6.6141  -18.6770 H   0  0  0  0  0  0  0  0  0  0  0  0
   -2.5825    5.1378  -19.3218 H   0  0  0  0  0  0  0  0  0  0  0  0
   -3.0077    4.3983  -15.6310 H   0  0  0  0  0  0  0  0  0  0  0  0
   -2.6204    5.9887  -16.2632 H   0  0  0  0  0  0  0  0  0  0  0  0
   -1.7934    4.5584  -16.9192 H   0  0  0  0  0  0  0  0  0  0  0  0
   -4.3851    2.7761  -16.9734 H   0  0  0  0  0  0  0  0  0  0  0  0
   -4.9399    3.1932  -18.6091 H   0  0  0  0  0  0  0  0  0  0  0  0
   -3.2277    2.8326  -18.2915 H   0  0  0  0  0  0  0  0  0  0  0  0
   -8.9188    9.1513  -12.7837 H   0  0  0  0  0  0  0  0  0  0  0  0
   -9.2533    9.3445  -14.3703 H   0  0  0  0  0  0  0  0  0  0  0  0
  1  3  1  0  0  0  0
  1  5  2  0  0  0  0
  2  4  2  0  0  0  0
  2  6  1  0  0  0  0
  3  6  2  0  0  0  0
  3  7  1  0  0  0  0
  4  5  1  0  0  0  0
  4 13  1  0  0  0  0
  5 27  1  0  0  0  0
  6 30  1  0  0  0  0
  7 25  2  0  0  0  0
  7 28  1  0  0  0  0
  8 23  1  0  0  0  0
  8 26  2  0  0  0  0
  8 29  1  0  0  0  0
  9 11  1  0  0  0  0
  9 14  1  0  0  0  0
 10 13  1  0  0  0  0
 10 14  1  0  0  0  0
 11 23  1  0  0  0  0
 12 14  1  0  0  0  0
 12 23  1  0  0  0  0
 13 24  1  0  0  0  0
 14 27  1  0  0  0  0
 15 21  1  0  0  0  0
 16 21  1  0  0  0  0
 17 21  1  0  0  0  0
 18 22  1  0  0  0  0
 19 22  1  0  0  0  0
 20 22  1  0  0  0  0
 21 28  1  0  0  0  0
 22 29  1  0  0  0  0
  1 31  1  0  0  0  0
  2 32  1  0  0  0  0
  9 33  1  0  0  0  0
  9 34  1  0  0  0  0
 10 35  1  0  0  0  0
 10 36  1  0  0  0  0
 11 37  1  0  0  0  0
 11 38  1  0  0  0  0
 12 39  1  0  0  0  0
 12 40  1  0  0  0  0
 13 41  1  0  0  0  0
 15 42  1  0  0  0  0
 15 43  1  0  0  0  0
 15 44  1  0  0  0  0
 16 45  1  0  0  0  0
 16 46  1  0  0  0  0
 16 47  1  0  0  0  0
 17 48  1  0  0  0  0
 17 49  1  0  0  0  0
 17 50  1  0  0  0  0
 18 51  1  0  0  0  0
 18 52  1  0  0  0  0
 18 53  1  0  0  0  0
 19 54  1  0  0  0  0
 19 55  1  0  0  0  0
 19 56  1  0  0  0  0
 20 57  1  0  0  0  0
 20 58  1  0  0  0  0
 20 59  1  0  0  0  0
 24 60  1  0  0  0  0
 24 61  1  0  0  0  0
M  END
> <id>
EN300-1129061

> <smiles>
CC(C)(C)OC(=O)N1CCC2(C1)CC(N)C=3C=C(F)C(=CC3O2)C(=O)OC(C)(C)C

> <IUPAC Name>
1',7-di-tert-butyl 4-amino-6-fluoro-3,4-dihydrospiro[1-benzopyran-2,3'-pyrrolidine]-1',7-dicarboxylate

> <CAS>
2137875-50-2

> <URL>
https://www.enaminestore.com/catalog/EN300-1129061

> <ROCS_ShapeQuery>
_x0404_0B

> <ROCS_TanimotoCombo>
0.447 

> <ROCS_ShapeTanimoto>
0.413 

> <ROCS_ColorTanimoto>
0.035 

> <ROCS_RefTversky>
0.364 

> <ROCS_RefColorTversky>
0.040 

> <ROCS_RefTverskyCombo>
0.403 

> <ROCS_FitTversky>
1.483 

> <ROCS_FitColorTversky>
0.216 

> <ROCS_FitTverskyCombo>
1.699 

> <ROCS_ColorScore>
-2.870

> <ROCS_Overlap>
2434.450

> <ROCS_Rank>
124                 

$$$$
untitled-dbase-115633_48
  -OEChem-08222312023D

 42 44  0     0  0  0  0  0  0999 V2000
   -8.3080    4.4567  -18.5973 C   0  0  0  0  0  0  0  0  0  0  0  0
   -9.4463    4.0428  -17.9056 C   0  0  0  0  0  0  0  0  0  0  0  0
   -7.1859    4.8956  -17.8945 C   0  0  0  0  0  0  0  0  0  0  0  0
   -9.4626    4.0680  -16.5111 C   0  0  0  0  0  0  0  0  0  0  0  0
   -7.2022    4.9208  -16.5000 C   0  0  0  0  0  0  0  0  0  0  0  0
   -8.1687    4.0050  -12.3169 C   0  0  0  0  0  0  0  0  0  0  0  0
   -8.3406    4.5070  -15.8082 C   0  0  0  0  0  0  0  0  0  0  0  0
   -8.6544    5.2969  -12.5015 C   0  0  0  0  0  0  0  0  0  0  0  0
   -7.9763    3.5089  -13.5717 C   0  0  0  0  0  0  0  0  0  0  0  0
   -8.6121    5.1306   -8.8990 C   0  0  0  0  0  0  0  0  0  0  0  0
   -8.0438    3.6576  -10.9016 C   0  0  0  0  0  0  0  0  0  0  0  0
   -8.9209    5.9904  -11.2410 C   0  0  0  0  0  0  0  0  0  0  0  0
  -10.3764    3.0052   -8.1664 C   0  0  0  0  0  0  0  0  0  0  0  0
   -8.5292    2.2435   -6.6442 C   0  0  0  0  0  0  0  0  0  0  0  0
   -9.5977    4.4883   -6.2879 C   0  0  0  0  0  0  0  0  0  0  0  0
   -9.1800    3.4461   -7.3242 C   0  0  0  0  0  0  0  0  0  0  0  0
   -8.7827    5.6527  -13.7720 N   0  0  0  0  0  0  0  0  0  0  0  0
   -8.3576    4.5318  -14.4118 N   0  0  0  0  0  0  0  0  0  0  0  0
   -8.5263    4.9273  -10.2691 N   0  0  0  0  0  0  0  0  0  0  0  0
   -7.5251    2.3213  -14.0252 N   0  0  0  0  0  0  0  0  0  0  0  0
   -9.0078    6.1717   -8.3797 O   0  0  0  0  0  0  0  0  0  0  0  0
   -8.2032    4.0320   -8.1919 O   0  0  0  0  0  0  0  0  0  0  0  0
   -8.2941    4.4356  -19.6830 H   0  0  0  0  0  0  0  0  0  0  0  0
  -10.3196    3.6997  -18.4526 H   0  0  0  0  0  0  0  0  0  0  0  0
   -6.2993    5.2164  -18.4339 H   0  0  0  0  0  0  0  0  0  0  0  0
  -10.3561    3.7419  -15.9841 H   0  0  0  0  0  0  0  0  0  0  0  0
   -6.3204    5.2646  -15.9647 H   0  0  0  0  0  0  0  0  0  0  0  0
   -8.6975    2.8380  -10.5925 H   0  0  0  0  0  0  0  0  0  0  0  0
   -7.0139    3.4746  -10.5843 H   0  0  0  0  0  0  0  0  0  0  0  0
   -8.2890    6.8674  -11.0789 H   0  0  0  0  0  0  0  0  0  0  0  0
   -9.9744    6.2376  -11.0867 H   0  0  0  0  0  0  0  0  0  0  0  0
  -10.8463    3.8656   -8.6561 H   0  0  0  0  0  0  0  0  0  0  0  0
  -10.0838    2.2838   -8.9363 H   0  0  0  0  0  0  0  0  0  0  0  0
  -11.1489    2.5469   -7.5384 H   0  0  0  0  0  0  0  0  0  0  0  0
   -7.6703    2.5552   -6.0389 H   0  0  0  0  0  0  0  0  0  0  0  0
   -8.1427    1.5368   -7.3875 H   0  0  0  0  0  0  0  0  0  0  0  0
   -9.2357    1.7141   -5.9969 H   0  0  0  0  0  0  0  0  0  0  0  0
   -8.7398    4.8047   -5.6837 H   0  0  0  0  0  0  0  0  0  0  0  0
  -10.0334    5.3747   -6.7603 H   0  0  0  0  0  0  0  0  0  0  0  0
  -10.3311    4.0704   -5.5886 H   0  0  0  0  0  0  0  0  0  0  0  0
   -7.4870    2.0958  -15.0309 H   0  0  0  0  0  0  0  0  0  0  0  0
   -7.2849    1.5459  -13.3890 H   0  0  0  0  0  0  0  0  0  0  0  0
  1  2  2  0  0  0  0
  1  3  1  0  0  0  0
  2  4  1  0  0  0  0
  3  5  2  0  0  0  0
  4  7  2  0  0  0  0
  5  7  1  0  0  0  0
  6  8  1  0  0  0  0
  6  9  2  0  0  0  0
  6 11  1  0  0  0  0
  7 18  1  0  0  0  0
  8 12  1  0  0  0  0
  8 17  2  0  0  0  0
  9 18  1  0  0  0  0
  9 20  1  0  0  0  0
 10 19  1  0  0  0  0
 10 21  2  0  0  0  0
 10 22  1  0  0  0  0
 11 19  1  0  0  0  0
 12 19  1  0  0  0  0
 13 16  1  0  0  0  0
 14 16  1  0  0  0  0
 15 16  1  0  0  0  0
 16 22  1  0  0  0  0
 17 18  1  0  0  0  0
  1 23  1  0  0  0  0
  2 24  1  0  0  0  0
  3 25  1  0  0  0  0
  4 26  1  0  0  0  0
  5 27  1  0  0  0  0
 11 28  1  0  0  0  0
 11 29  1  0  0  0  0
 12 30  1  0  0  0  0
 12 31  1  0  0  0  0
 13 32  1  0  0  0  0
 13 33  1  0  0  0  0
 13 34  1  0  0  0  0
 14 35  1  0  0  0  0
 14 36  1  0  0  0  0
 14 37  1  0  0  0  0
 15 38  1  0  0  0  0
 15 39  1  0  0  0  0
 15 40  1  0  0  0  0
 20 41  1  0  0  0  0
 20 42  1  0  0  0  0
M  END
> <id>
EN300-265824

> <smiles>
CC(C)(C)OC(=O)N1CC2=NN(C(N)=C2C1)C=3C=CC=CC3

> <MDLNUMBER>
MFCD24384721

> <IUPAC Name>
tert-butyl 3-amino-2-phenyl-2H,4H,5H,6H-pyrrolo[3,4-c]pyrazole-5-carboxylate

> <CAS>
1414568-27-6

> <URL>
https://www.enaminestore.com/catalog/EN300-265824

> <ROCS_ShapeQuery>
_x0404_0B

> <ROCS_TanimotoCombo>
0.447 

> <ROCS_ShapeTanimoto>
0.343 

> <ROCS_ColorTanimoto>
0.104 

> <ROCS_RefTversky>
0.306 

> <ROCS_RefColorTversky>
0.109 

> <ROCS_RefTverskyCombo>
0.415 

> <ROCS_FitTversky>
1.551 

> <ROCS_FitColorTversky>
0.688 

> <ROCS_FitTverskyCombo>
2.238 

> <ROCS_ColorScore>
-7.862

> <ROCS_Overlap>
2043.568

> <ROCS_Rank>
125                 

$$$$
untitled-dbase-144803_170
  -OEChem-08222312023D

 49 51  0     1  0  0  0  0  0999 V2000
   -9.1794    3.6735   -7.1279 C   0  0  0  0  0  0  0  0  0  0  0  0
   -9.1581    2.4042   -7.7014 C   0  0  0  0  0  0  0  0  0  0  0  0
   -9.0757    4.8060   -7.9350 C   0  0  0  0  0  0  0  0  0  0  0  0
   -9.0290    2.2643   -9.0831 C   0  0  0  0  0  0  0  0  0  0  0  0
   -8.9550    4.6760   -9.3247 C   0  0  0  0  0  0  0  0  0  0  0  0
   -8.9129    3.3954   -9.9023 C   0  0  0  0  0  0  0  0  0  0  0  0
   -7.6191    6.0234  -16.6936 C   0  0  0  0  0  0  0  0  0  0  0  0
   -8.8056    5.9023  -10.1870 C   0  0  0  0  0  0  0  0  0  0  0  0
   -8.8133    3.2327  -11.4018 C   0  0  0  0  0  0  0  0  0  0  0  0
   -9.0506    5.6186  -11.6726 C   0  0  0  0  0  0  0  0  0  0  0  0
   -8.2457    5.5794  -14.2835 C   0  0  0  0  0  0  0  0  0  0  0  0
   -7.1298    3.8624  -15.5508 C   0  0  0  0  0  0  0  0  0  0  0  0
   -8.3514    4.2550  -13.5356 C   0  0  1  0  0  0  0  0  0  0  0  0
   -7.1629    3.4568  -14.0810 C   0  0  1  0  0  0  0  0  0  0  0  0
   -8.2442    6.6363  -19.4143 C   0  0  0  0  0  0  0  0  0  0  0  0
   -6.9906    4.5351  -19.9826 C   0  0  0  0  0  0  0  0  0  0  0  0
   -9.0633    4.4114  -18.5696 C   0  0  0  0  0  0  0  0  0  0  0  0
   -7.8351    5.2468  -18.9278 C   0  0  0  0  0  0  0  0  0  0  0  0
   -7.6745    5.2108  -15.5743 N   0  0  0  0  0  0  0  0  0  0  0  0
   -8.2934    4.4304  -12.0850 N   0  0  2  0  0  0  0  0  0  0  0  0
   -8.0523    7.1728  -16.7340 O   0  0  0  0  0  0  0  0  0  0  0  0
   -7.3866    2.0665  -13.9387 O   0  0  0  0  0  0  0  0  0  0  0  0
   -7.0263    5.3943  -17.7553 O   0  0  0  0  0  0  0  0  0  0  0  0
   -9.2767    3.7813   -6.0515 H   0  0  0  0  0  0  0  0  0  0  0  0
   -9.2411    1.5227   -7.0722 H   0  0  0  0  0  0  0  0  0  0  0  0
   -9.0912    5.7909   -7.4752 H   0  0  0  0  0  0  0  0  0  0  0  0
   -9.0185    1.2681   -9.5182 H   0  0  0  0  0  0  0  0  0  0  0  0
   -9.5227    6.6550   -9.8353 H   0  0  0  0  0  0  0  0  0  0  0  0
   -7.7984    6.3192  -10.0689 H   0  0  0  0  0  0  0  0  0  0  0  0
   -8.1749    2.3619  -11.6031 H   0  0  0  0  0  0  0  0  0  0  0  0
   -9.8148    3.0172  -11.7950 H   0  0  0  0  0  0  0  0  0  0  0  0
  -10.1266    5.4594  -11.8160 H   0  0  0  0  0  0  0  0  0  0  0  0
   -8.7683    6.4910  -12.2777 H   0  0  0  0  0  0  0  0  0  0  0  0
   -9.2125    6.0765  -14.4105 H   0  0  0  0  0  0  0  0  0  0  0  0
   -7.5491    6.2812  -13.8097 H   0  0  0  0  0  0  0  0  0  0  0  0
   -6.1172    3.8536  -15.9668 H   0  0  0  0  0  0  0  0  0  0  0  0
   -7.7591    3.2218  -16.1797 H   0  0  0  0  0  0  0  0  0  0  0  0
   -9.2885    3.7509  -13.7902 H   0  0  0  0  0  0  0  0  0  0  0  0
   -6.2229    3.7298  -13.5854 H   0  0  0  0  0  0  0  0  0  0  0  0
   -8.8505    7.1504  -18.6599 H   0  0  0  0  0  0  0  0  0  0  0  0
   -7.3715    7.2573  -19.6413 H   0  0  0  0  0  0  0  0  0  0  0  0
   -8.8644    6.5682  -20.3154 H   0  0  0  0  0  0  0  0  0  0  0  0
   -6.6948    3.5377  -19.6378 H   0  0  0  0  0  0  0  0  0  0  0  0
   -6.0613    5.0838  -20.1738 H   0  0  0  0  0  0  0  0  0  0  0  0
   -7.5313    4.4287  -20.9286 H   0  0  0  0  0  0  0  0  0  0  0  0
   -8.7701    3.4147  -18.2206 H   0  0  0  0  0  0  0  0  0  0  0  0
   -9.6619    4.8892  -17.7873 H   0  0  0  0  0  0  0  0  0  0  0  0
   -9.6992    4.2565  -19.4488 H   0  0  0  0  0  0  0  0  0  0  0  0
   -8.2438    1.8705  -14.3543 H   0  0  0  0  0  0  0  0  0  0  0  0
  1  2  2  0  0  0  0
  1  3  1  0  0  0  0
  2  4  1  0  0  0  0
  3  5  2  0  0  0  0
  4  6  2  0  0  0  0
  5  6  1  0  0  0  0
  5  8  1  0  0  0  0
  6  9  1  0  0  0  0
  7 19  1  0  0  0  0
  7 21  2  0  0  0  0
  7 23  1  0  0  0  0
  8 10  1  0  0  0  0
  9 20  1  0  0  0  0
 10 20  1  0  0  0  0
 11 13  1  0  0  0  0
 11 19  1  0  0  0  0
 12 14  1  0  0  0  0
 12 19  1  0  0  0  0
 13 14  1  0  0  0  0
 13 20  1  0  0  0  0
 14 22  1  0  0  0  0
 15 18  1  0  0  0  0
 16 18  1  0  0  0  0
 17 18  1  0  0  0  0
 18 23  1  0  0  0  0
  1 24  1  0  0  0  0
  2 25  1  0  0  0  0
  3 26  1  0  0  0  0
  4 27  1  0  0  0  0
  8 28  1  0  0  0  0
  8 29  1  0  0  0  0
  9 30  1  0  0  0  0
  9 31  1  0  0  0  0
 10 32  1  0  0  0  0
 10 33  1  0  0  0  0
 11 34  1  0  0  0  0
 11 35  1  0  0  0  0
 12 36  1  0  0  0  0
 12 37  1  0  0  0  0
 13 38  1  0  0  0  0
 14 39  1  0  0  0  0
 15 40  1  0  0  0  0
 15 41  1  0  0  0  0
 15 42  1  0  0  0  0
 16 43  1  0  0  0  0
 16 44  1  0  0  0  0
 16 45  1  0  0  0  0
 17 46  1  0  0  0  0
 17 47  1  0  0  0  0
 17 48  1  0  0  0  0
 22 49  1  0  0  0  0
M  END
> <id>
EN300-214318

> <smiles>
CC(C)(C)OC(=O)N1CC(O)C(C1)N2CCC=3C=CC=CC3C2

> <IUPAC Name>
tert-butyl 3-hydroxy-4-(1,2,3,4-tetrahydroisoquinolin-2-yl)pyrrolidine-1-carboxylate

> <CAS>
2580248-29-7

> <URL>
https://www.enaminestore.com/catalog/EN300-214318

> <ROCS_ShapeQuery>
_x0404_0B

> <ROCS_TanimotoCombo>
0.447 

> <ROCS_ShapeTanimoto>
0.349 

> <ROCS_ColorTanimoto>
0.098 

> <ROCS_RefTversky>
0.310 

> <ROCS_RefColorTversky>
0.103 

> <ROCS_RefTverskyCombo>
0.414 

> <ROCS_FitTversky>
1.558 

> <ROCS_FitColorTversky>
0.657 

> <ROCS_FitTverskyCombo>
2.215 

> <ROCS_ColorScore>
-7.474

> <ROCS_Overlap>
2070.956

> <ROCS_Rank>
126                 

$$$$
untitled-dbase-38390_436
  -OEChem-08222312023D

 49 51  0     0  0  0  0  0  0999 V2000
   -8.6073    6.7418  -12.2504 C   0  0  0  0  0  0  0  0  0  0  0  0
   -8.7049    6.9996  -10.9425 C   0  0  0  0  0  0  0  0  0  0  0  0
   -8.8067    4.3859  -11.8846 C   0  0  0  0  0  0  0  0  0  0  0  0
   -9.1763    3.7923   -8.2136 C   0  0  0  0  0  0  0  0  0  0  0  0
   -8.6572    5.3899  -12.7658 C   0  0  0  0  0  0  0  0  0  0  0  0
   -9.1163    5.0868   -7.8561 C   0  0  0  0  0  0  0  0  0  0  0  0
   -8.8705    5.8769   -9.9787 C   0  0  0  0  0  0  0  0  0  0  0  0
   -9.0683    3.4757   -9.6759 C   0  0  0  0  0  0  0  0  0  0  0  0
   -8.4611    4.9564  -18.3929 C   0  0  0  0  0  0  0  0  0  0  0  0
   -9.1998    4.0793  -14.7875 C   0  0  0  0  0  0  0  0  0  0  0  0
   -7.7722    6.1330  -14.9460 C   0  0  0  0  0  0  0  0  0  0  0  0
   -9.6032    4.4495  -16.2115 C   0  0  0  0  0  0  0  0  0  0  0  0
   -7.3308    5.4708  -16.2470 C   0  0  0  0  0  0  0  0  0  0  0  0
   -9.3416    2.6085   -7.3040 C   0  0  0  0  0  0  0  0  0  0  0  0
   -7.1323    4.8023  -20.9216 C   0  0  0  0  0  0  0  0  0  0  0  0
   -5.8973    6.8638  -20.1907 C   0  0  0  0  0  0  0  0  0  0  0  0
   -5.6470    4.7292  -18.8911 C   0  0  0  0  0  0  0  0  0  0  0  0
   -6.5960    5.5879  -19.7258 C   0  0  0  0  0  0  0  0  0  0  0  0
   -8.9646    6.1435   -8.7127 N   0  0  0  0  0  0  0  0  0  0  0  0
   -8.9147    4.5872  -10.5117 N   0  0  0  0  0  0  0  0  0  0  0  0
   -8.5501    5.2080  -14.1155 N   0  0  0  0  0  0  0  0  0  0  0  0
   -8.4714    4.9487  -16.9957 N   0  0  0  0  0  0  0  0  0  0  0  0
   -9.1182    2.3044  -10.0511 O   0  0  0  0  0  0  0  0  0  0  0  0
   -9.0567    4.1416  -19.0950 O   0  0  0  0  0  0  0  0  0  0  0  0
   -7.7019    5.9769  -18.9030 O   0  0  0  0  0  0  0  0  0  0  0  0
   -9.2321    5.5667   -6.1869 Cl  0  0  0  0  0  0  0  0  0  0  0  0
   -8.4870    7.5619  -12.9517 H   0  0  0  0  0  0  0  0  0  0  0  0
   -8.6672    8.0123  -10.5584 H   0  0  0  0  0  0  0  0  0  0  0  0
   -8.8489    3.3574  -12.2298 H   0  0  0  0  0  0  0  0  0  0  0  0
  -10.0957    3.7516  -14.2358 H   0  0  0  0  0  0  0  0  0  0  0  0
   -8.5108    3.2191  -14.7984 H   0  0  0  0  0  0  0  0  0  0  0  0
   -6.8928    6.4775  -14.3763 H   0  0  0  0  0  0  0  0  0  0  0  0
   -8.3573    7.0367  -15.1855 H   0  0  0  0  0  0  0  0  0  0  0  0
  -10.0582    3.5786  -16.7069 H   0  0  0  0  0  0  0  0  0  0  0  0
  -10.3686    5.2426  -16.2024 H   0  0  0  0  0  0  0  0  0  0  0  0
   -6.8203    6.1995  -16.8947 H   0  0  0  0  0  0  0  0  0  0  0  0
   -6.6023    4.6803  -16.0248 H   0  0  0  0  0  0  0  0  0  0  0  0
  -10.4000    2.3965   -7.1765 H   0  0  0  0  0  0  0  0  0  0  0  0
   -8.8933    2.8293   -6.3384 H   0  0  0  0  0  0  0  0  0  0  0  0
   -8.8451    1.7455   -7.7408 H   0  0  0  0  0  0  0  0  0  0  0  0
   -7.6346    3.8857  -20.5921 H   0  0  0  0  0  0  0  0  0  0  0  0
   -7.8411    5.3953  -21.5088 H   0  0  0  0  0  0  0  0  0  0  0  0
   -6.3153    4.4872  -21.5807 H   0  0  0  0  0  0  0  0  0  0  0  0
   -5.5109    7.4307  -19.3360 H   0  0  0  0  0  0  0  0  0  0  0  0
   -6.5997    7.5269  -20.7087 H   0  0  0  0  0  0  0  0  0  0  0  0
   -5.0644    6.6450  -20.8667 H   0  0  0  0  0  0  0  0  0  0  0  0
   -5.2621    5.2925  -18.0333 H   0  0  0  0  0  0  0  0  0  0  0  0
   -6.1422    3.8270  -18.5179 H   0  0  0  0  0  0  0  0  0  0  0  0
   -4.7733    4.4284  -19.4806 H   0  0  0  0  0  0  0  0  0  0  0  0
  1  2  2  0  0  0  0
  1  5  1  0  0  0  0
  2  7  1  0  0  0  0
  3  5  2  0  0  0  0
  3 20  1  0  0  0  0
  4  6  2  0  0  0  0
  4  8  1  0  0  0  0
  4 14  1  0  0  0  0
  5 21  1  0  0  0  0
  6 19  1  0  0  0  0
  6 26  1  0  0  0  0
  7 19  2  0  0  0  0
  7 20  1  0  0  0  0
  8 20  1  0  0  0  0
  8 23  2  0  0  0  0
  9 22  1  0  0  0  0
  9 24  2  0  0  0  0
  9 25  1  0  0  0  0
 10 12  1  0  0  0  0
 10 21  1  0  0  0  0
 11 13  1  0  0  0  0
 11 21  1  0  0  0  0
 12 22  1  0  0  0  0
 13 22  1  0  0  0  0
 15 18  1  0  0  0  0
 16 18  1  0  0  0  0
 17 18  1  0  0  0  0
 18 25  1  0  0  0  0
  1 27  1  0  0  0  0
  2 28  1  0  0  0  0
  3 29  1  0  0  0  0
 10 30  1  0  0  0  0
 10 31  1  0  0  0  0
 11 32  1  0  0  0  0
 11 33  1  0  0  0  0
 12 34  1  0  0  0  0
 12 35  1  0  0  0  0
 13 36  1  0  0  0  0
 13 37  1  0  0  0  0
 14 38  1  0  0  0  0
 14 39  1  0  0  0  0
 14 40  1  0  0  0  0
 15 41  1  0  0  0  0
 15 42  1  0  0  0  0
 15 43  1  0  0  0  0
 16 44  1  0  0  0  0
 16 45  1  0  0  0  0
 16 46  1  0  0  0  0
 17 47  1  0  0  0  0
 17 48  1  0  0  0  0
 17 49  1  0  0  0  0
M  END
> <id>
EN300-1083421

> <smiles>
CC1=C(Cl)N=C2C=CC(=CN2C1=O)N3CCN(CC3)C(=O)OC(C)(C)C

> <IUPAC Name>
tert-butyl 4-{2-chloro-3-methyl-4-oxo-4H-pyrido[1,2-a]pyrimidin-7-yl}piperazine-1-carboxylate

> <CAS>
2138241-83-3

> <URL>
https://www.enaminestore.com/catalog/EN300-1083421

> <ROCS_ShapeQuery>
_x0404_0B

> <ROCS_TanimotoCombo>
0.447 

> <ROCS_ShapeTanimoto>
0.400 

> <ROCS_ColorTanimoto>
0.047 

> <ROCS_RefTversky>
0.349 

> <ROCS_RefColorTversky>
0.051 

> <ROCS_RefTverskyCombo>
0.400 

> <ROCS_FitTversky>
1.588 

> <ROCS_FitColorTversky>
0.352 

> <ROCS_FitTverskyCombo>
1.940 

> <ROCS_ColorScore>
-3.676

> <ROCS_Overlap>
2331.060

> <ROCS_Rank>
127                 

$$$$
untitled-dbase-171106_14
  -OEChem-08222312023D

 41 44  0     0  0  0  0  0  0999 V2000
   -9.3086    3.9844  -16.3261 C   0  0  0  0  0  0  0  0  0  0  0  0
   -9.3964    4.2876  -14.9675 C   0  0  0  0  0  0  0  0  0  0  0  0
   -7.4901    5.7578  -15.1724 C   0  0  0  0  0  0  0  0  0  0  0  0
   -8.6324    4.7634  -10.6867 C   0  0  0  0  0  0  0  0  0  0  0  0
   -8.5810    3.9467   -9.4972 C   0  0  0  0  0  0  0  0  0  0  0  0
   -8.3115    4.5678  -17.1079 C   0  0  0  0  0  0  0  0  0  0  0  0
   -8.4872    5.1743  -14.3906 C   0  0  0  0  0  0  0  0  0  0  0  0
   -7.4024    5.4545  -16.5311 C   0  0  0  0  0  0  0  0  0  0  0  0
   -8.8523    4.7042   -8.3678 C   0  0  0  0  0  0  0  0  0  0  0  0
   -8.9185    6.0832  -10.3990 C   0  0  0  0  0  0  0  0  0  0  0  0
   -8.4441    4.3920  -12.0893 C   0  0  0  0  0  0  0  0  0  0  0  0
   -8.8297    6.7984  -12.5197 C   0  0  0  0  0  0  0  0  0  0  0  0
   -8.2860    2.4749   -9.4197 C   0  0  0  0  0  0  0  0  0  0  0  0
   -8.9144    4.2294   -6.9467 C   0  0  0  0  0  0  0  0  0  0  0  0
   -9.4370    1.6647   -8.8187 C   0  0  0  0  0  0  0  0  0  0  0  0
   -9.9625    3.1321   -6.7540 C   0  0  0  0  0  0  0  0  0  0  0  0
   -9.5426    1.7624   -7.2941 C   0  0  0  0  0  0  0  0  0  0  0  0
   -8.2518    4.2169  -18.5597 C   0  0  0  0  0  0  0  0  0  0  0  0
   -9.0126    7.1151  -11.2725 N   0  0  0  0  0  0  0  0  0  0  0  0
   -8.5771    5.4857  -12.9905 N   0  0  0  0  0  0  0  0  0  0  0  0
   -8.2429    3.2279  -12.4246 O   0  0  0  0  0  0  0  0  0  0  0  0
   -9.1403    6.3446   -8.7324 S   0  0  0  0  0  0  0  0  0  0  0  0
   -8.8070    8.1556  -13.6453 S   0  0  0  0  0  0  0  0  0  0  0  0
   -6.1552    6.1951  -17.4670 Cl  0  0  0  0  0  0  0  0  0  0  0  0
  -10.0219    3.2920  -16.7654 H   0  0  0  0  0  0  0  0  0  0  0  0
  -10.1769    3.8265  -14.3677 H   0  0  0  0  0  0  0  0  0  0  0  0
   -6.7827    6.4485  -14.7179 H   0  0  0  0  0  0  0  0  0  0  0  0
   -8.0427    2.1013  -10.4226 H   0  0  0  0  0  0  0  0  0  0  0  0
   -7.3957    2.2931   -8.8130 H   0  0  0  0  0  0  0  0  0  0  0  0
   -7.9402    3.8311   -6.6357 H   0  0  0  0  0  0  0  0  0  0  0  0
   -9.1248    5.0790   -6.2853 H   0  0  0  0  0  0  0  0  0  0  0  0
  -10.3751    2.0520   -9.2369 H   0  0  0  0  0  0  0  0  0  0  0  0
   -9.3693    0.6127   -9.1228 H   0  0  0  0  0  0  0  0  0  0  0  0
  -10.2423    3.0458   -5.6966 H   0  0  0  0  0  0  0  0  0  0  0  0
  -10.8686    3.4346   -7.2942 H   0  0  0  0  0  0  0  0  0  0  0  0
  -10.2285    0.9921   -6.9211 H   0  0  0  0  0  0  0  0  0  0  0  0
   -8.5568    1.5248   -6.8746 H   0  0  0  0  0  0  0  0  0  0  0  0
   -8.8650    4.9129  -19.1429 H   0  0  0  0  0  0  0  0  0  0  0  0
   -7.2221    4.2583  -18.9342 H   0  0  0  0  0  0  0  0  0  0  0  0
   -8.6156    3.1973  -18.7350 H   0  0  0  0  0  0  0  0  0  0  0  0
   -9.0037    9.1085  -12.7299 H   0  0  0  0  0  0  0  0  0  0  0  0
  1  2  1  0  0  0  0
  1  6  2  0  0  0  0
  2  7  2  0  0  0  0
  3  7  1  0  0  0  0
  3  8  2  0  0  0  0
  4  5  1  0  0  0  0
  4 10  2  0  0  0  0
  4 11  1  0  0  0  0
  5  9  2  0  0  0  0
  5 13  1  0  0  0  0
  6  8  1  0  0  0  0
  6 18  1  0  0  0  0
  7 20  1  0  0  0  0
  8 24  1  0  0  0  0
  9 14  1  0  0  0  0
  9 22  1  0  0  0  0
 10 19  1  0  0  0  0
 10 22  1  0  0  0  0
 11 20  1  0  0  0  0
 11 21  2  0  0  0  0
 12 19  2  0  0  0  0
 12 20  1  0  0  0  0
 12 23  1  0  0  0  0
 13 15  1  0  0  0  0
 14 16  1  0  0  0  0
 15 17  1  0  0  0  0
 16 17  1  0  0  0  0
  1 25  1  0  0  0  0
  2 26  1  0  0  0  0
  3 27  1  0  0  0  0
 13 28  1  0  0  0  0
 13 29  1  0  0  0  0
 14 30  1  0  0  0  0
 14 31  1  0  0  0  0
 15 32  1  0  0  0  0
 15 33  1  0  0  0  0
 16 34  1  0  0  0  0
 16 35  1  0  0  0  0
 17 36  1  0  0  0  0
 17 37  1  0  0  0  0
 18 38  1  0  0  0  0
 18 39  1  0  0  0  0
 18 40  1  0  0  0  0
 23 41  1  0  0  0  0
M  END
> <id>
EN300-14107

> <smiles>
CC=1C=CC(=CC1Cl)N2C(S)=NC=3SC=4CCCCCC4C3C2=O

> <MDLNUMBER>
MFCD08506043

> <IUPAC Name>
4-(3-chloro-4-methylphenyl)-5-sulfanyl-8-thia-4,6-diazatricyclo[7.5.0.0,2,7]tetradeca-1(9),2(7),5-trien-3-one

> <CAS>
885524-55-0

> <Purity>
95

> <URL>
https://www.enaminestore.com/catalog/EN300-14107

> <MP>
16-17

> <ROCS_ShapeQuery>
_x0404_0B

> <ROCS_TanimotoCombo>
0.446 

> <ROCS_ShapeTanimoto>
0.384 

> <ROCS_ColorTanimoto>
0.062 

> <ROCS_RefTversky>
0.334 

> <ROCS_RefColorTversky>
0.067 

> <ROCS_RefTverskyCombo>
0.401 

> <ROCS_FitTversky>
1.635 

> <ROCS_FitColorTversky>
0.464 

> <ROCS_FitTverskyCombo>
2.099 

> <ROCS_ColorScore>
-4.845

> <ROCS_Overlap>
2231.567

> <ROCS_Rank>
128                 

$$$$
untitled-dbase-179866_18
  -OEChem-08222312023D

 49 51  0     1  0  0  0  0  0999 V2000
   -9.5358    3.6729   -7.3401 C   0  0  0  0  0  0  0  0  0  0  0  0
   -9.0251    2.4716   -7.8265 C   0  0  0  0  0  0  0  0  0  0  0  0
   -9.5901    4.7942   -8.1674 C   0  0  0  0  0  0  0  0  0  0  0  0
   -8.5713    2.3878   -9.1428 C   0  0  0  0  0  0  0  0  0  0  0  0
   -9.1280    4.7225   -9.4879 C   0  0  0  0  0  0  0  0  0  0  0  0
   -8.6318    3.5055   -9.9860 C   0  0  0  0  0  0  0  0  0  0  0  0
   -8.2563    5.6964  -17.0144 C   0  0  0  0  0  0  0  0  0  0  0  0
   -9.2238    5.9273  -10.3873 C   0  0  0  0  0  0  0  0  0  0  0  0
   -8.1006    3.4135  -11.3983 C   0  0  0  0  0  0  0  0  0  0  0  0
   -8.3608    5.7994  -11.6468 C   0  0  0  0  0  0  0  0  0  0  0  0
   -8.4163    5.5076  -14.5329 C   0  0  0  0  0  0  0  0  0  0  0  0
   -7.9748    3.5039  -15.7912 C   0  0  0  0  0  0  0  0  0  0  0  0
   -7.9304    4.4235  -13.5806 C   0  0  2  0  0  0  0  0  0  0  0  0
   -8.2434    3.1298  -14.3384 C   0  0  2  0  0  0  0  0  0  0  0  0
   -5.8409    5.9104  -18.0050 C   0  0  0  0  0  0  0  0  0  0  0  0
   -6.3714    4.0327  -19.5867 C   0  0  0  0  0  0  0  0  0  0  0  0
   -7.3496    6.3124  -19.9791 C   0  0  0  0  0  0  0  0  0  0  0  0
   -6.8999    5.3029  -18.9239 C   0  0  0  0  0  0  0  0  0  0  0  0
   -8.2144    4.9398  -15.8560 N   0  0  0  0  0  0  0  0  0  0  0  0
   -8.5877    4.4925  -12.2759 N   0  0  1  0  0  0  0  0  0  0  0  0
   -8.4653    6.9071  -17.0414 O   0  0  0  0  0  0  0  0  0  0  0  0
   -7.3884    2.0770  -13.9321 O   0  0  0  0  0  0  0  0  0  0  0  0
   -8.0345    4.9359  -18.1312 O   0  0  0  0  0  0  0  0  0  0  0  0
   -9.8919    3.7363   -6.3159 H   0  0  0  0  0  0  0  0  0  0  0  0
   -8.9792    1.5999   -7.1802 H   0  0  0  0  0  0  0  0  0  0  0  0
   -9.9960    5.7243   -7.7776 H   0  0  0  0  0  0  0  0  0  0  0  0
   -8.1693    1.4460   -9.5078 H   0  0  0  0  0  0  0  0  0  0  0  0
  -10.2750    6.0541  -10.6755 H   0  0  0  0  0  0  0  0  0  0  0  0
   -8.9166    6.8258   -9.8390 H   0  0  0  0  0  0  0  0  0  0  0  0
   -7.0036    3.4203  -11.3451 H   0  0  0  0  0  0  0  0  0  0  0  0
   -8.4135    2.4523  -11.8250 H   0  0  0  0  0  0  0  0  0  0  0  0
   -8.6362    6.6106  -12.3322 H   0  0  0  0  0  0  0  0  0  0  0  0
   -7.2997    5.9330  -11.3957 H   0  0  0  0  0  0  0  0  0  0  0  0
   -9.4585    5.8105  -14.3928 H   0  0  0  0  0  0  0  0  0  0  0  0
   -7.7892    6.4033  -14.4643 H   0  0  0  0  0  0  0  0  0  0  0  0
   -6.9542    3.2803  -16.1212 H   0  0  0  0  0  0  0  0  0  0  0  0
   -8.6899    3.0255  -16.4709 H   0  0  0  0  0  0  0  0  0  0  0  0
   -6.8212    4.5339  -13.4394 H   0  0  0  0  0  0  0  0  0  0  0  0
   -9.2884    2.7911  -14.1964 H   0  0  0  0  0  0  0  0  0  0  0  0
   -6.2164    6.8225  -17.5273 H   0  0  0  0  0  0  0  0  0  0  0  0
   -5.5353    5.2085  -17.2223 H   0  0  0  0  0  0  0  0  0  0  0  0
   -4.9511    6.2033  -18.5739 H   0  0  0  0  0  0  0  0  0  0  0  0
   -7.1280    3.5934  -20.2469 H   0  0  0  0  0  0  0  0  0  0  0  0
   -6.1363    3.2695  -18.8360 H   0  0  0  0  0  0  0  0  0  0  0  0
   -5.4696    4.2293  -20.1755 H   0  0  0  0  0  0  0  0  0  0  0  0
   -8.1092    5.8769  -20.6383 H   0  0  0  0  0  0  0  0  0  0  0  0
   -7.7660    7.2157  -19.5215 H   0  0  0  0  0  0  0  0  0  0  0  0
   -6.5113    6.6028  -20.6227 H   0  0  0  0  0  0  0  0  0  0  0  0
   -7.5778    1.3261  -14.5159 H   0  0  0  0  0  0  0  0  0  0  0  0
  1  2  2  0  0  0  0
  1  3  1  0  0  0  0
  2  4  1  0  0  0  0
  3  5  2  0  0  0  0
  4  6  2  0  0  0  0
  5  6  1  0  0  0  0
  5  8  1  0  0  0  0
  6  9  1  0  0  0  0
  7 19  1  0  0  0  0
  7 21  2  0  0  0  0
  7 23  1  0  0  0  0
  8 10  1  0  0  0  0
  9 20  1  0  0  0  0
 10 20  1  0  0  0  0
 11 13  1  0  0  0  0
 11 19  1  0  0  0  0
 12 14  1  0  0  0  0
 12 19  1  0  0  0  0
 13 14  1  0  0  0  0
 13 20  1  6  0  0  0
 14 22  1  1  0  0  0
 15 18  1  0  0  0  0
 16 18  1  0  0  0  0
 17 18  1  0  0  0  0
 18 23  1  0  0  0  0
  1 24  1  0  0  0  0
  2 25  1  0  0  0  0
  3 26  1  0  0  0  0
  4 27  1  0  0  0  0
  8 28  1  0  0  0  0
  8 29  1  0  0  0  0
  9 30  1  0  0  0  0
  9 31  1  0  0  0  0
 10 32  1  0  0  0  0
 10 33  1  0  0  0  0
 11 34  1  0  0  0  0
 11 35  1  0  0  0  0
 12 36  1  0  0  0  0
 12 37  1  0  0  0  0
 13 38  1  0  0  0  0
 14 39  1  0  0  0  0
 15 40  1  0  0  0  0
 15 41  1  0  0  0  0
 15 42  1  0  0  0  0
 16 43  1  0  0  0  0
 16 44  1  0  0  0  0
 16 45  1  0  0  0  0
 17 46  1  0  0  0  0
 17 47  1  0  0  0  0
 17 48  1  0  0  0  0
 22 49  1  0  0  0  0
M  END
> <id>
EN300-27718490

> <smiles>
CC(C)(C)OC(=O)N1C[C@@H](O)[C@@H](C1)N2CCC=3C=CC=CC3C2 |&1:9,11,r|

> <IUPAC Name>
rac-tert-butyl (3R,4R)-3-hydroxy-4-(1,2,3,4-tetrahydroisoquinolin-2-yl)pyrrolidine-1-carboxylate

> <CAS>
1348852-02-7

> <URL>
https://www.enaminestore.com/catalog/EN300-27718490

> <ROCS_ShapeQuery>
_x0404_0B

> <ROCS_TanimotoCombo>
0.446 

> <ROCS_ShapeTanimoto>
0.348 

> <ROCS_ColorTanimoto>
0.098 

> <ROCS_RefTversky>
0.309 

> <ROCS_RefColorTversky>
0.104 

> <ROCS_RefTverskyCombo>
0.413 

> <ROCS_FitTversky>
1.554 

> <ROCS_FitColorTversky>
0.658 

> <ROCS_FitTverskyCombo>
2.212 

> <ROCS_ColorScore>
-7.488

> <ROCS_Overlap>
2065.237

> <ROCS_Rank>
129                 

$$$$
untitled-dbase-148189_6195
  -OEChem-08222312023D

 51 52  0     1  0  0  0  0  0999 V2000
   -6.9753    5.0552  -19.0419 C   0  0  0  0  0  0  0  0  0  0  0  0
   -8.6189    6.1442  -14.5317 C   0  0  0  0  0  0  0  0  0  0  0  0
   -8.5888    5.1421   -9.1490 C   0  0  0  0  0  0  0  0  0  0  0  0
  -10.0443    3.9495  -17.1544 C   0  0  0  0  0  0  0  0  0  0  0  0
   -8.9351    3.8001  -18.1957 C   0  0  0  0  0  0  0  0  0  0  0  0
   -9.4790    4.0840  -15.7443 C   0  0  0  0  0  0  0  0  0  0  0  0
   -9.6936    6.4986  -12.3312 C   0  0  0  0  0  0  0  0  0  0  0  0
   -8.5804    4.3316  -12.7544 C   0  0  0  0  0  0  0  0  0  0  0  0
   -8.8699    6.6903  -11.0661 C   0  0  0  0  0  0  0  0  0  0  0  0
   -7.7879    4.4949  -11.4556 C   0  0  0  0  0  0  0  0  0  0  0  0
   -7.9117    5.6900  -16.8439 C   0  0  0  0  0  0  0  0  0  0  0  0
   -7.6484    4.5372  -17.8079 C   0  0  2  0  0  0  0  0  0  0  0  0
  -10.4962    3.3816   -8.7610 C   0  0  0  0  0  0  0  0  0  0  0  0
   -8.7439    1.5906   -8.5850 C   0  0  0  0  0  0  0  0  0  0  0  0
   -9.0738    3.2080   -6.6920 C   0  0  0  0  0  0  0  0  0  0  0  0
   -9.1178    3.0225   -8.2080 C   0  0  0  0  0  0  0  0  0  0  0  0
   -8.5992    5.2584  -15.6237 N   0  0  0  0  0  0  0  0  0  0  0  0
   -9.0092    5.6295  -13.2885 N   0  0  0  0  0  0  0  0  0  0  0  0
   -8.4514    5.4024  -10.5161 N   0  0  0  0  0  0  0  0  0  0  0  0
   -7.4095    4.9413  -20.1785 O   0  0  0  0  0  0  0  0  0  0  0  0
   -8.3210    7.3380  -14.6700 O   0  0  0  0  0  0  0  0  0  0  0  0
   -9.0518    5.9390   -8.3349 O   0  0  0  0  0  0  0  0  0  0  0  0
   -5.8088    5.6702  -18.7286 O   0  0  0  0  0  0  0  0  0  0  0  0
   -8.1475    3.8926   -8.8023 O   0  0  0  0  0  0  0  0  0  0  0  0
  -10.6563    4.8257  -17.3926 H   0  0  0  0  0  0  0  0  0  0  0  0
  -10.7046    3.0753  -17.1995 H   0  0  0  0  0  0  0  0  0  0  0  0
   -8.7207    2.7280  -18.3552 H   0  0  0  0  0  0  0  0  0  0  0  0
   -9.3014    4.1714  -19.1711 H   0  0  0  0  0  0  0  0  0  0  0  0
  -10.2845    4.2052  -15.0114 H   0  0  0  0  0  0  0  0  0  0  0  0
   -8.9238    3.1791  -15.4780 H   0  0  0  0  0  0  0  0  0  0  0  0
  -10.6987    6.1432  -12.0975 H   0  0  0  0  0  0  0  0  0  0  0  0
   -9.8321    7.4662  -12.8313 H   0  0  0  0  0  0  0  0  0  0  0  0
   -7.9676    3.8471  -13.5215 H   0  0  0  0  0  0  0  0  0  0  0  0
   -9.4541    3.6980  -12.5773 H   0  0  0  0  0  0  0  0  0  0  0  0
   -8.0008    7.3180  -11.2800 H   0  0  0  0  0  0  0  0  0  0  0  0
   -9.4603    7.1952  -10.2948 H   0  0  0  0  0  0  0  0  0  0  0  0
   -7.6942    3.5253  -10.9496 H   0  0  0  0  0  0  0  0  0  0  0  0
   -6.7742    4.8343  -11.6911 H   0  0  0  0  0  0  0  0  0  0  0  0
   -6.9893    6.2429  -16.6198 H   0  0  0  0  0  0  0  0  0  0  0  0
   -8.5678    6.4410  -17.3171 H   0  0  0  0  0  0  0  0  0  0  0  0
   -6.9482    3.8206  -17.3422 H   0  0  0  0  0  0  0  0  0  0  0  0
  -10.7683    4.4087   -8.4926 H   0  0  0  0  0  0  0  0  0  0  0  0
  -10.5308    3.2863   -9.8512 H   0  0  0  0  0  0  0  0  0  0  0  0
  -11.2702    2.7347   -8.3323 H   0  0  0  0  0  0  0  0  0  0  0  0
   -7.7556    1.3287   -8.1902 H   0  0  0  0  0  0  0  0  0  0  0  0
   -8.6816    1.4772   -9.6733 H   0  0  0  0  0  0  0  0  0  0  0  0
   -9.4725    0.8687   -8.2023 H   0  0  0  0  0  0  0  0  0  0  0  0
   -8.0851    2.9505   -6.2950 H   0  0  0  0  0  0  0  0  0  0  0  0
   -9.3035    4.2392   -6.4049 H   0  0  0  0  0  0  0  0  0  0  0  0
   -9.7890    2.5412   -6.1969 H   0  0  0  0  0  0  0  0  0  0  0  0
   -5.3511    6.0152  -19.5247 H   0  0  0  0  0  0  0  0  0  0  0  0
  1 12  1  0  0  0  0
  1 20  2  0  0  0  0
  1 23  1  0  0  0  0
  2 17  1  0  0  0  0
  2 18  1  0  0  0  0
  2 21  2  0  0  0  0
  3 19  1  0  0  0  0
  3 22  2  0  0  0  0
  3 24  1  0  0  0  0
  4  5  1  0  0  0  0
  4  6  1  0  0  0  0
  5 12  1  0  0  0  0
  6 17  1  0  0  0  0
  7  9  1  0  0  0  0
  7 18  1  0  0  0  0
  8 10  1  0  0  0  0
  8 18  1  0  0  0  0
  9 19  1  0  0  0  0
 10 19  1  0  0  0  0
 11 12  1  0  0  0  0
 11 17  1  0  0  0  0
 13 16  1  0  0  0  0
 14 16  1  0  0  0  0
 15 16  1  0  0  0  0
 16 24  1  0  0  0  0
  4 25  1  0  0  0  0
  4 26  1  0  0  0  0
  5 27  1  0  0  0  0
  5 28  1  0  0  0  0
  6 29  1  0  0  0  0
  6 30  1  0  0  0  0
  7 31  1  0  0  0  0
  7 32  1  0  0  0  0
  8 33  1  0  0  0  0
  8 34  1  0  0  0  0
  9 35  1  0  0  0  0
  9 36  1  0  0  0  0
 10 37  1  0  0  0  0
 10 38  1  0  0  0  0
 11 39  1  0  0  0  0
 11 40  1  0  0  0  0
 12 41  1  0  0  0  0
 13 42  1  0  0  0  0
 13 43  1  0  0  0  0
 13 44  1  0  0  0  0
 14 45  1  0  0  0  0
 14 46  1  0  0  0  0
 14 47  1  0  0  0  0
 15 48  1  0  0  0  0
 15 49  1  0  0  0  0
 15 50  1  0  0  0  0
 23 51  1  0  0  0  0
M  END
> <id>
EN300-1071842

> <smiles>
CC(C)(C)OC(=O)N1CCN(CC1)C(=O)N2CCCC(C2)C(=O)O

> <MDLNUMBER>
MFCD21145638

> <IUPAC Name>
1-{4-[(tert-butoxy)carbonyl]piperazine-1-carbonyl}piperidine-3-carboxylic acid

> <CAS>
2639433-58-0

> <URL>
https://www.enaminestore.com/catalog/EN300-1071842

> <ROCS_ShapeQuery>
_x0404_0B

> <ROCS_TanimotoCombo>
0.446 

> <ROCS_ShapeTanimoto>
0.390 

> <ROCS_ColorTanimoto>
0.056 

> <ROCS_RefTversky>
0.337 

> <ROCS_RefColorTversky>
0.062 

> <ROCS_RefTverskyCombo>
0.399 

> <ROCS_FitTversky>
1.667 

> <ROCS_FitColorTversky>
0.392 

> <ROCS_FitTverskyCombo>
2.058 

> <ROCS_ColorScore>
-4.460

> <ROCS_Overlap>
2251.274

> <ROCS_Rank>
130                 

$$$$
untitled-dbase-168595_654
  -OEChem-08222312023D

 57 60  0     1  0  0  0  0  0999 V2000
   -9.0055    5.3724  -13.9494 C   0  0  0  0  0  0  0  0  0  0  0  0
   -9.0261    5.0937  -15.1175 C   0  0  0  0  0  0  0  0  0  0  0  0
   -9.2275    7.3569  -10.7806 C   0  0  0  0  0  0  0  0  0  0  0  0
   -9.2461    7.0139  -12.1452 C   0  0  0  0  0  0  0  0  0  0  0  0
   -8.9459    6.3972   -9.8072 C   0  0  0  0  0  0  0  0  0  0  0  0
   -8.9832    5.7044  -12.5609 C   0  0  0  0  0  0  0  0  0  0  0  0
   -8.6898    5.1121  -10.2441 C   0  0  0  0  0  0  0  0  0  0  0  0
   -8.7045    4.7574  -11.5937 C   0  0  0  0  0  0  0  0  0  0  0  0
   -8.3673    3.9172   -9.4560 C   0  0  0  0  0  0  0  0  0  0  0  0
   -7.1703   -1.2141  -10.6433 C   0  0  0  0  0  0  0  0  0  0  0  0
   -6.5108    1.2059  -10.5782 C   0  0  0  0  0  0  0  0  0  0  0  0
   -6.8841    5.2745  -19.1345 C   0  0  0  0  0  0  0  0  0  0  0  0
   -8.3918    3.3089  -11.7550 C   0  0  0  0  0  0  0  0  0  0  0  0
   -8.5282   -0.8538  -10.0896 C   0  0  0  0  0  0  0  0  0  0  0  0
   -8.9310    0.5566  -10.4802 C   0  0  0  0  0  0  0  0  0  0  0  0
   -8.7205    5.9355  -17.4725 C   0  0  0  0  0  0  0  0  0  0  0  0
   -7.7826    4.0472  -17.0506 C   0  0  0  0  0  0  0  0  0  0  0  0
   -7.8737    1.5358   -9.9961 C   0  0  2  0  0  0  0  0  0  0  0  0
   -9.0520    4.7578  -16.5272 C   0  0  0  0  0  0  0  0  0  0  0  0
   -4.9203    6.8885  -18.5141 C   0  0  0  0  0  0  0  0  0  0  0  0
   -3.4567    4.8848  -18.1240 C   0  0  0  0  0  0  0  0  0  0  0  0
   -4.0371    5.5721  -20.4690 C   0  0  0  0  0  0  0  0  0  0  0  0
   -4.5255    5.5028  -19.0228 C   0  0  0  0  0  0  0  0  0  0  0  0
   -6.2926   -0.1494  -10.8232 N   0  0  0  0  0  0  0  0  0  0  0  0
   -8.2010    2.8852  -10.3730 N   0  0  0  0  0  0  0  0  0  0  0  0
   -7.6866    5.0979  -18.0416 N   0  0  0  0  0  0  0  0  0  0  0  0
   -8.2793    3.9041   -8.2420 O   0  0  0  0  0  0  0  0  0  0  0  0
   -6.8578   -2.3835  -10.8662 O   0  0  0  0  0  0  0  0  0  0  0  0
   -5.6357    2.0545  -10.7497 O   0  0  0  0  0  0  0  0  0  0  0  0
   -7.2082    5.9100  -20.1339 O   0  0  0  0  0  0  0  0  0  0  0  0
  -10.2953    4.0849  -16.8212 O   0  0  0  0  0  0  0  0  0  0  0  0
   -5.6770    4.6533  -18.9707 O   0  0  0  0  0  0  0  0  0  0  0  0
   -9.4351    8.3814  -10.4834 H   0  0  0  0  0  0  0  0  0  0  0  0
   -9.4697    7.7904  -12.8743 H   0  0  0  0  0  0  0  0  0  0  0  0
   -8.9312    6.6589   -8.7557 H   0  0  0  0  0  0  0  0  0  0  0  0
   -9.2271    2.7510  -12.1875 H   0  0  0  0  0  0  0  0  0  0  0  0
   -7.4639    3.1455  -12.3101 H   0  0  0  0  0  0  0  0  0  0  0  0
   -9.2628   -1.5671  -10.4789 H   0  0  0  0  0  0  0  0  0  0  0  0
   -8.4909   -0.9619   -8.9999 H   0  0  0  0  0  0  0  0  0  0  0  0
   -9.0366    0.6156  -11.5715 H   0  0  0  0  0  0  0  0  0  0  0  0
   -9.9058    0.7956  -10.0395 H   0  0  0  0  0  0  0  0  0  0  0  0
   -9.5089    6.1938  -18.1856 H   0  0  0  0  0  0  0  0  0  0  0  0
   -8.3240    6.8467  -17.0136 H   0  0  0  0  0  0  0  0  0  0  0  0
   -6.9179    4.0143  -16.3801 H   0  0  0  0  0  0  0  0  0  0  0  0
   -7.9541    3.0570  -17.4826 H   0  0  0  0  0  0  0  0  0  0  0  0
   -7.7914    1.5085   -8.9031 H   0  0  0  0  0  0  0  0  0  0  0  0
   -5.6873    7.3356  -19.1566 H   0  0  0  0  0  0  0  0  0  0  0  0
   -5.3051    6.8477  -17.4899 H   0  0  0  0  0  0  0  0  0  0  0  0
   -4.0632    7.5714  -18.5348 H   0  0  0  0  0  0  0  0  0  0  0  0
   -3.1705    3.8904  -18.4853 H   0  0  0  0  0  0  0  0  0  0  0  0
   -3.8362    4.7456  -17.1053 H   0  0  0  0  0  0  0  0  0  0  0  0
   -2.5582    5.5085  -18.0771 H   0  0  0  0  0  0  0  0  0  0  0  0
   -3.7539    4.5782  -20.8341 H   0  0  0  0  0  0  0  0  0  0  0  0
   -4.8049    5.9790  -21.1350 H   0  0  0  0  0  0  0  0  0  0  0  0
   -3.1405    6.1975  -20.5479 H   0  0  0  0  0  0  0  0  0  0  0  0
   -5.3720   -0.3912  -11.1799 H   0  0  0  0  0  0  0  0  0  0  0  0
  -10.2669    3.8822  -17.7651 H   0  0  0  0  0  0  0  0  0  0  0  0
  1  2  3  0  0  0  0
  1  6  1  0  0  0  0
  2 19  1  0  0  0  0
  3  4  1  0  0  0  0
  3  5  2  0  0  0  0
  4  6  2  0  0  0  0
  5  7  1  0  0  0  0
  6  8  1  0  0  0  0
  7  8  2  0  0  0  0
  7  9  1  0  0  0  0
  8 13  1  0  0  0  0
  9 25  1  0  0  0  0
  9 27  2  0  0  0  0
 10 14  1  0  0  0  0
 10 24  1  0  0  0  0
 10 28  2  0  0  0  0
 11 18  1  0  0  0  0
 11 24  1  0  0  0  0
 11 29  2  0  0  0  0
 12 26  1  0  0  0  0
 12 30  2  0  0  0  0
 12 32  1  0  0  0  0
 13 25  1  0  0  0  0
 14 15  1  0  0  0  0
 15 18  1  0  0  0  0
 16 19  1  0  0  0  0
 16 26  1  0  0  0  0
 17 19  1  0  0  0  0
 17 26  1  0  0  0  0
 18 25  1  0  0  0  0
 19 31  1  0  0  0  0
 20 23  1  0  0  0  0
 21 23  1  0  0  0  0
 22 23  1  0  0  0  0
 23 32  1  0  0  0  0
  3 33  1  0  0  0  0
  4 34  1  0  0  0  0
  5 35  1  0  0  0  0
 13 36  1  0  0  0  0
 13 37  1  0  0  0  0
 14 38  1  0  0  0  0
 14 39  1  0  0  0  0
 15 40  1  0  0  0  0
 15 41  1  0  0  0  0
 16 42  1  0  0  0  0
 16 43  1  0  0  0  0
 17 44  1  0  0  0  0
 17 45  1  0  0  0  0
 18 46  1  0  0  0  0
 20 47  1  0  0  0  0
 20 48  1  0  0  0  0
 20 49  1  0  0  0  0
 21 50  1  0  0  0  0
 21 51  1  0  0  0  0
 21 52  1  0  0  0  0
 22 53  1  0  0  0  0
 22 54  1  0  0  0  0
 22 55  1  0  0  0  0
 24 56  1  0  0  0  0
 31 57  1  0  0  0  0
M  END
> <id>
EN300-26682916

> <smiles>
CC(C)(C)OC(=O)N1CC(O)(C1)C#CC=2C=CC=C3C(=O)N(CC32)C4CCC(=O)NC4=O

> <IUPAC Name>
tert-butyl 3-{2-[2-(2,6-dioxopiperidin-3-yl)-1-oxo-2,3-dihydro-1H-isoindol-4-yl]ethynyl}-3-hydroxyazetidine-1-carboxylate

> <CAS>
2154343-04-9

> <URL>
https://www.enaminestore.com/catalog/EN300-26682916

> <ROCS_ShapeQuery>
_x0404_0B

> <ROCS_TanimotoCombo>
0.446 

> <ROCS_ShapeTanimoto>
0.360 

> <ROCS_ColorTanimoto>
0.085 

> <ROCS_RefTversky>
0.334 

> <ROCS_RefColorTversky>
0.095 

> <ROCS_RefTverskyCombo>
0.429 

> <ROCS_FitTversky>
1.284 

> <ROCS_FitColorTversky>
0.454 

> <ROCS_FitTverskyCombo>
1.738 

> <ROCS_ColorScore>
-6.898

> <ROCS_Overlap>
2236.111

> <ROCS_Rank>
131                 

$$$$
untitled-dbase-43631_0
  -OEChem-08222312023D

 81 85  0     1  0  0  0  0  0999 V2000
   -9.9092    3.6250  -14.5293 C   0  0  0  0  0  0  0  0  0  0  0  0
   -9.2167    4.6779  -15.0063 C   0  0  0  0  0  0  0  0  0  0  0  0
   -6.9137    4.0308  -16.9826 C   0  0  0  0  0  0  0  0  0  0  0  0
  -10.0791    3.2664  -13.0827 C   0  0  0  0  0  0  0  0  0  0  0  0
   -7.7681    5.4485  -10.1145 C   0  0  0  0  0  0  0  0  0  0  0  0
   -9.4986    2.2411   -8.7269 C   0  0  0  0  0  0  0  0  0  0  0  0
   -7.0420    5.9560  -14.6683 C   0  0  0  0  0  0  0  0  0  0  0  0
   -7.0581    6.3495  -16.1485 C   0  0  0  0  0  0  0  0  0  0  0  0
   -7.7785    5.7839  -18.4864 C   0  0  0  0  0  0  0  0  0  0  0  0
   -7.7952    5.9934  -11.5363 C   0  0  0  0  0  0  0  0  0  0  0  0
   -9.4578    2.5869  -10.2113 C   0  0  0  0  0  0  0  0  0  0  0  0
   -8.5531    4.8489  -19.4176 C   0  0  0  0  0  0  0  0  0  0  0  0
   -9.9672    4.0893  -17.4549 C   0  0  0  0  0  0  0  0  0  0  0  0
   -9.1929    5.0394  -16.5049 C   0  0  2  0  0  0  0  0  0  0  0  0
   -9.6547    4.3895  -12.1092 C   0  0  1  0  0  0  0  0  0  0  0  0
   -9.1807    5.0871   -9.5998 C   0  0  1  0  0  0  0  0  0  0  0  0
   -8.6911    3.2244   -7.8883 C   0  0  1  0  0  0  0  0  0  0  0  0
   -8.4404    5.6236  -14.0543 C   0  0  2  0  0  0  0  0  0  0  0  0
   -7.7556    5.2907  -17.0238 C   0  0  1  0  0  0  0  0  0  0  0  0
   -9.8853    4.0373  -10.5599 C   0  0  2  0  0  0  0  0  0  0  0  0
   -8.2643    4.9553  -12.5713 C   0  0  1  0  0  0  0  0  0  0  0  0
   -9.9850    4.5507  -18.9330 C   0  0  0  0  0  0  0  0  0  0  0  0
   -9.1491    4.6963   -8.0553 C   0  0  0  0  0  0  0  0  0  0  0  0
   -9.2378    6.9615  -13.9855 C   0  0  0  0  0  0  0  0  0  0  0  0
  -11.4326    4.1227  -10.3553 C   0  0  0  0  0  0  0  0  0  0  0  0
   -7.1820    3.8336  -12.6314 C   0  0  0  0  0  0  0  0  0  0  0  0
  -10.8822    5.7929  -19.1059 C   0  0  0  0  0  0  0  0  0  0  0  0
  -10.5789    3.4215  -19.7981 C   0  0  0  0  0  0  0  0  0  0  0  0
  -10.5228    4.9340   -7.3752 C   0  0  0  0  0  0  0  0  0  0  0  0
   -8.1726    5.6105   -7.2603 C   0  0  0  0  0  0  0  0  0  0  0  0
   -7.2969    2.9436  -16.5768 O   0  0  0  0  0  0  0  0  0  0  0  0
   -5.6672    4.2722  -17.4572 O   0  0  0  0  0  0  0  0  0  0  0  0
   -8.7897    2.7983   -6.5289 O   0  0  0  0  0  0  0  0  0  0  0  0
  -10.4334    2.9582  -15.2065 H   0  0  0  0  0  0  0  0  0  0  0  0
  -11.1348    3.0191  -12.9366 H   0  0  0  0  0  0  0  0  0  0  0  0
   -9.5148    2.3460  -12.8990 H   0  0  0  0  0  0  0  0  0  0  0  0
   -7.0870    4.5972  -10.0232 H   0  0  0  0  0  0  0  0  0  0  0  0
   -7.3387    6.2527   -9.5080 H   0  0  0  0  0  0  0  0  0  0  0  0
  -10.5301    2.1722   -8.3653 H   0  0  0  0  0  0  0  0  0  0  0  0
   -9.0926    1.2310   -8.5836 H   0  0  0  0  0  0  0  0  0  0  0  0
   -6.3661    5.1001  -14.5936 H   0  0  0  0  0  0  0  0  0  0  0  0
   -6.5661    6.7646  -14.0998 H   0  0  0  0  0  0  0  0  0  0  0  0
   -7.5484    7.3234  -16.2662 H   0  0  0  0  0  0  0  0  0  0  0  0
   -6.0203    6.4899  -16.4795 H   0  0  0  0  0  0  0  0  0  0  0  0
   -6.7551    5.8855  -18.8709 H   0  0  0  0  0  0  0  0  0  0  0  0
   -8.2193    6.7874  -18.5341 H   0  0  0  0  0  0  0  0  0  0  0  0
   -8.4549    6.8671  -11.5289 H   0  0  0  0  0  0  0  0  0  0  0  0
   -6.7952    6.3632  -11.7921 H   0  0  0  0  0  0  0  0  0  0  0  0
   -8.4419    2.3902  -10.5505 H   0  0  0  0  0  0  0  0  0  0  0  0
  -10.0967    1.8666  -10.7370 H   0  0  0  0  0  0  0  0  0  0  0  0
   -8.5777    5.2877  -20.4234 H   0  0  0  0  0  0  0  0  0  0  0  0
   -7.9950    3.9081  -19.5142 H   0  0  0  0  0  0  0  0  0  0  0  0
   -9.5259    3.0850  -17.3995 H   0  0  0  0  0  0  0  0  0  0  0  0
  -11.0059    3.9916  -17.1113 H   0  0  0  0  0  0  0  0  0  0  0  0
   -9.7287    5.9954  -16.5665 H   0  0  0  0  0  0  0  0  0  0  0  0
  -10.3645    5.2102  -12.2781 H   0  0  0  0  0  0  0  0  0  0  0  0
   -9.7565    6.0222   -9.6710 H   0  0  0  0  0  0  0  0  0  0  0  0
   -7.6360    3.1289   -8.1748 H   0  0  0  0  0  0  0  0  0  0  0  0
   -8.7122    7.6340  -13.3263 H   0  0  0  0  0  0  0  0  0  0  0  0
  -10.2235    6.7474  -13.6041 H   0  0  0  0  0  0  0  0  0  0  0  0
   -9.2953    7.3716  -14.9813 H   0  0  0  0  0  0  0  0  0  0  0  0
  -11.7455    5.1254  -10.5938 H   0  0  0  0  0  0  0  0  0  0  0  0
  -11.6461    3.8886   -9.3258 H   0  0  0  0  0  0  0  0  0  0  0  0
  -11.8960    3.4087  -11.0155 H   0  0  0  0  0  0  0  0  0  0  0  0
   -7.4988    3.0987  -13.3540 H   0  0  0  0  0  0  0  0  0  0  0  0
   -7.0990    3.3932  -11.6508 H   0  0  0  0  0  0  0  0  0  0  0  0
   -6.2479    4.2827  -12.9284 H   0  0  0  0  0  0  0  0  0  0  0  0
  -11.8820    5.5591  -18.7590 H   0  0  0  0  0  0  0  0  0  0  0  0
  -10.9109    6.0660  -20.1544 H   0  0  0  0  0  0  0  0  0  0  0  0
  -10.4721    6.6100  -18.5237 H   0  0  0  0  0  0  0  0  0  0  0  0
  -11.5868    3.2084  -19.4605 H   0  0  0  0  0  0  0  0  0  0  0  0
   -9.9624    2.5356  -19.6973 H   0  0  0  0  0  0  0  0  0  0  0  0
  -10.5978    3.7406  -20.8340 H   0  0  0  0  0  0  0  0  0  0  0  0
  -10.4456    4.6540   -6.3340 H   0  0  0  0  0  0  0  0  0  0  0  0
  -11.2644    4.3254   -7.8731 H   0  0  0  0  0  0  0  0  0  0  0  0
  -10.7755    5.9812   -7.4643 H   0  0  0  0  0  0  0  0  0  0  0  0
   -8.1881    5.3059   -6.2249 H   0  0  0  0  0  0  0  0  0  0  0  0
   -8.5062    6.6322   -7.3594 H   0  0  0  0  0  0  0  0  0  0  0  0
   -7.1830    5.4932   -7.6749 H   0  0  0  0  0  0  0  0  0  0  0  0
   -5.1054    3.4682  -17.4370 H   0  0  0  0  0  0  0  0  0  0  0  0
   -8.4203    1.9031   -6.4956 H   0  0  0  0  0  0  0  0  0  0  0  0
  1  2  2  0  0  0  0
  1  4  1  0  0  0  0
  2 14  1  0  0  0  0
  2 18  1  0  0  0  0
  3 19  1  0  0  0  0
  3 31  2  0  0  0  0
  3 32  1  0  0  0  0
  4 15  1  0  0  0  0
  5 10  1  0  0  0  0
  5 16  1  0  0  0  0
  6 11  1  0  0  0  0
  6 17  1  0  0  0  0
  7  8  1  0  0  0  0
  7 18  1  0  0  0  0
  8 19  1  0  0  0  0
  9 12  1  0  0  0  0
  9 19  1  0  0  0  0
 10 21  1  0  0  0  0
 11 20  1  0  0  0  0
 12 22  1  0  0  0  0
 13 14  1  0  0  0  0
 13 22  1  0  0  0  0
 14 19  1  0  0  0  0
 15 20  1  0  0  0  0
 15 21  1  0  0  0  0
 16 20  1  0  0  0  0
 16 23  1  0  0  0  0
 17 23  1  0  0  0  0
 17 33  1  0  0  0  0
 18 21  1  0  0  0  0
 18 24  1  0  0  0  0
 20 25  1  0  0  0  0
 21 26  1  0  0  0  0
 22 27  1  0  0  0  0
 22 28  1  0  0  0  0
 23 29  1  0  0  0  0
 23 30  1  0  0  0  0
  1 34  1  0  0  0  0
  4 35  1  0  0  0  0
  4 36  1  0  0  0  0
  5 37  1  0  0  0  0
  5 38  1  0  0  0  0
  6 39  1  0  0  0  0
  6 40  1  0  0  0  0
  7 41  1  0  0  0  0
  7 42  1  0  0  0  0
  8 43  1  0  0  0  0
  8 44  1  0  0  0  0
  9 45  1  0  0  0  0
  9 46  1  0  0  0  0
 10 47  1  0  0  0  0
 10 48  1  0  0  0  0
 11 49  1  0  0  0  0
 11 50  1  0  0  0  0
 12 51  1  0  0  0  0
 12 52  1  0  0  0  0
 13 53  1  0  0  0  0
 13 54  1  0  0  0  0
 14 55  1  0  0  0  0
 15 56  1  0  0  0  0
 16 57  1  0  0  0  0
 17 58  1  0  0  0  0
 24 59  1  0  0  0  0
 24 60  1  0  0  0  0
 24 61  1  0  0  0  0
 25 62  1  0  0  0  0
 25 63  1  0  0  0  0
 25 64  1  0  0  0  0
 26 65  1  0  0  0  0
 26 66  1  0  0  0  0
 26 67  1  0  0  0  0
 27 68  1  0  0  0  0
 27 69  1  0  0  0  0
 27 70  1  0  0  0  0
 28 71  1  0  0  0  0
 28 72  1  0  0  0  0
 28 73  1  0  0  0  0
 29 74  1  0  0  0  0
 29 75  1  0  0  0  0
 29 76  1  0  0  0  0
 30 77  1  0  0  0  0
 30 78  1  0  0  0  0
 30 79  1  0  0  0  0
 32 80  1  0  0  0  0
 33 81  1  0  0  0  0
M  END
> <id>
EN300-718261

> <smiles>
O.CC1(C)CCC2(CCC3(C)C(=CCC4C5(C)CCC(O)C(C)(C)C5CCC43C)C2C1)C(=O)O

> <IUPAC Name>
10-hydroxy-2,2,6a,6b,9,9,12a-heptamethyl-1,2,3,4,4a,5,6,6a,6b,7,8,8a,9,10,11,12,12a,12b,13,14b-icosahydropicene-4a-carboxylic acid hydrate

> <URL>
https://www.enaminestore.com/catalog/EN300-718261

> <Saltdate>
O

> <ROCS_ShapeQuery>
_x0404_0B

> <ROCS_TanimotoCombo>
0.446 

> <ROCS_ShapeTanimoto>
0.395 

> <ROCS_ColorTanimoto>
0.051 

> <ROCS_RefTversky>
0.356 

> <ROCS_RefColorTversky>
0.059 

> <ROCS_RefTverskyCombo>
0.415 

> <ROCS_FitTversky>
1.380 

> <ROCS_FitColorTversky>
0.281 

> <ROCS_FitTverskyCombo>
1.661 

> <ROCS_ColorScore>
-4.271

> <ROCS_Overlap>
2383.606

> <ROCS_Rank>
132                 

$$$$
untitled-dbase-120298_0
  -OEChem-08222312023D

 81 85  0     1  0  0  0  0  0999 V2000
   -9.9092    3.6250  -14.5293 C   0  0  0  0  0  0  0  0  0  0  0  0
   -9.2167    4.6779  -15.0063 C   0  0  0  0  0  0  0  0  0  0  0  0
   -6.9137    4.0308  -16.9826 C   0  0  0  0  0  0  0  0  0  0  0  0
  -10.0791    3.2664  -13.0827 C   0  0  0  0  0  0  0  0  0  0  0  0
   -7.7681    5.4485  -10.1145 C   0  0  0  0  0  0  0  0  0  0  0  0
   -9.4986    2.2411   -8.7269 C   0  0  0  0  0  0  0  0  0  0  0  0
   -7.0420    5.9560  -14.6683 C   0  0  0  0  0  0  0  0  0  0  0  0
   -7.0581    6.3495  -16.1485 C   0  0  0  0  0  0  0  0  0  0  0  0
   -7.7785    5.7839  -18.4864 C   0  0  0  0  0  0  0  0  0  0  0  0
   -7.7952    5.9934  -11.5363 C   0  0  0  0  0  0  0  0  0  0  0  0
   -9.4578    2.5869  -10.2113 C   0  0  0  0  0  0  0  0  0  0  0  0
   -8.5531    4.8489  -19.4176 C   0  0  0  0  0  0  0  0  0  0  0  0
   -9.9672    4.0893  -17.4549 C   0  0  0  0  0  0  0  0  0  0  0  0
   -9.1929    5.0394  -16.5049 C   0  0  2  0  0  0  0  0  0  0  0  0
   -9.6547    4.3895  -12.1092 C   0  0  1  0  0  0  0  0  0  0  0  0
   -9.1807    5.0871   -9.5998 C   0  0  1  0  0  0  0  0  0  0  0  0
   -8.6911    3.2244   -7.8883 C   0  0  1  0  0  0  0  0  0  0  0  0
   -8.4404    5.6236  -14.0543 C   0  0  2  0  0  0  0  0  0  0  0  0
   -7.7556    5.2907  -17.0238 C   0  0  1  0  0  0  0  0  0  0  0  0
   -9.8853    4.0373  -10.5599 C   0  0  2  0  0  0  0  0  0  0  0  0
   -8.2643    4.9553  -12.5713 C   0  0  1  0  0  0  0  0  0  0  0  0
   -9.9850    4.5507  -18.9330 C   0  0  0  0  0  0  0  0  0  0  0  0
   -9.1491    4.6963   -8.0553 C   0  0  0  0  0  0  0  0  0  0  0  0
   -9.2378    6.9615  -13.9855 C   0  0  0  0  0  0  0  0  0  0  0  0
  -11.4326    4.1227  -10.3553 C   0  0  0  0  0  0  0  0  0  0  0  0
   -7.1820    3.8336  -12.6314 C   0  0  0  0  0  0  0  0  0  0  0  0
  -10.8822    5.7929  -19.1059 C   0  0  0  0  0  0  0  0  0  0  0  0
  -10.5789    3.4215  -19.7981 C   0  0  0  0  0  0  0  0  0  0  0  0
  -10.5228    4.9340   -7.3752 C   0  0  0  0  0  0  0  0  0  0  0  0
   -8.1726    5.6105   -7.2603 C   0  0  0  0  0  0  0  0  0  0  0  0
   -7.2969    2.9436  -16.5768 O   0  0  0  0  0  0  0  0  0  0  0  0
   -5.6672    4.2722  -17.4572 O   0  0  0  0  0  0  0  0  0  0  0  0
   -8.7897    2.7983   -6.5289 O   0  0  0  0  0  0  0  0  0  0  0  0
  -10.4334    2.9582  -15.2065 H   0  0  0  0  0  0  0  0  0  0  0  0
  -11.1348    3.0191  -12.9366 H   0  0  0  0  0  0  0  0  0  0  0  0
   -9.5148    2.3460  -12.8990 H   0  0  0  0  0  0  0  0  0  0  0  0
   -7.0870    4.5972  -10.0232 H   0  0  0  0  0  0  0  0  0  0  0  0
   -7.3387    6.2527   -9.5080 H   0  0  0  0  0  0  0  0  0  0  0  0
  -10.5301    2.1722   -8.3653 H   0  0  0  0  0  0  0  0  0  0  0  0
   -9.0926    1.2310   -8.5836 H   0  0  0  0  0  0  0  0  0  0  0  0
   -6.3661    5.1001  -14.5936 H   0  0  0  0  0  0  0  0  0  0  0  0
   -6.5661    6.7646  -14.0998 H   0  0  0  0  0  0  0  0  0  0  0  0
   -7.5484    7.3234  -16.2662 H   0  0  0  0  0  0  0  0  0  0  0  0
   -6.0203    6.4899  -16.4795 H   0  0  0  0  0  0  0  0  0  0  0  0
   -6.7551    5.8855  -18.8709 H   0  0  0  0  0  0  0  0  0  0  0  0
   -8.2193    6.7874  -18.5341 H   0  0  0  0  0  0  0  0  0  0  0  0
   -8.4549    6.8671  -11.5289 H   0  0  0  0  0  0  0  0  0  0  0  0
   -6.7952    6.3632  -11.7921 H   0  0  0  0  0  0  0  0  0  0  0  0
   -8.4419    2.3902  -10.5505 H   0  0  0  0  0  0  0  0  0  0  0  0
  -10.0967    1.8666  -10.7370 H   0  0  0  0  0  0  0  0  0  0  0  0
   -8.5777    5.2877  -20.4234 H   0  0  0  0  0  0  0  0  0  0  0  0
   -7.9950    3.9081  -19.5142 H   0  0  0  0  0  0  0  0  0  0  0  0
   -9.5259    3.0850  -17.3995 H   0  0  0  0  0  0  0  0  0  0  0  0
  -11.0059    3.9916  -17.1113 H   0  0  0  0  0  0  0  0  0  0  0  0
   -9.7287    5.9954  -16.5665 H   0  0  0  0  0  0  0  0  0  0  0  0
  -10.3645    5.2102  -12.2781 H   0  0  0  0  0  0  0  0  0  0  0  0
   -9.7565    6.0222   -9.6710 H   0  0  0  0  0  0  0  0  0  0  0  0
   -7.6360    3.1289   -8.1748 H   0  0  0  0  0  0  0  0  0  0  0  0
   -8.7122    7.6340  -13.3263 H   0  0  0  0  0  0  0  0  0  0  0  0
  -10.2235    6.7474  -13.6041 H   0  0  0  0  0  0  0  0  0  0  0  0
   -9.2953    7.3716  -14.9813 H   0  0  0  0  0  0  0  0  0  0  0  0
  -11.7455    5.1254  -10.5938 H   0  0  0  0  0  0  0  0  0  0  0  0
  -11.6461    3.8886   -9.3258 H   0  0  0  0  0  0  0  0  0  0  0  0
  -11.8960    3.4087  -11.0155 H   0  0  0  0  0  0  0  0  0  0  0  0
   -7.4988    3.0987  -13.3540 H   0  0  0  0  0  0  0  0  0  0  0  0
   -7.0990    3.3932  -11.6508 H   0  0  0  0  0  0  0  0  0  0  0  0
   -6.2479    4.2827  -12.9284 H   0  0  0  0  0  0  0  0  0  0  0  0
  -11.8820    5.5591  -18.7590 H   0  0  0  0  0  0  0  0  0  0  0  0
  -10.9109    6.0660  -20.1544 H   0  0  0  0  0  0  0  0  0  0  0  0
  -10.4721    6.6100  -18.5237 H   0  0  0  0  0  0  0  0  0  0  0  0
  -11.5868    3.2084  -19.4605 H   0  0  0  0  0  0  0  0  0  0  0  0
   -9.9624    2.5356  -19.6973 H   0  0  0  0  0  0  0  0  0  0  0  0
  -10.5978    3.7406  -20.8340 H   0  0  0  0  0  0  0  0  0  0  0  0
  -10.4456    4.6540   -6.3340 H   0  0  0  0  0  0  0  0  0  0  0  0
  -11.2644    4.3254   -7.8731 H   0  0  0  0  0  0  0  0  0  0  0  0
  -10.7755    5.9812   -7.4643 H   0  0  0  0  0  0  0  0  0  0  0  0
   -8.1881    5.3059   -6.2249 H   0  0  0  0  0  0  0  0  0  0  0  0
   -8.5062    6.6322   -7.3594 H   0  0  0  0  0  0  0  0  0  0  0  0
   -7.1830    5.4932   -7.6749 H   0  0  0  0  0  0  0  0  0  0  0  0
   -5.1054    3.4682  -17.4370 H   0  0  0  0  0  0  0  0  0  0  0  0
   -8.4203    1.9031   -6.4956 H   0  0  0  0  0  0  0  0  0  0  0  0
  1  2  2  0  0  0  0
  1  4  1  0  0  0  0
  2 14  1  0  0  0  0
  2 18  1  0  0  0  0
  3 19  1  0  0  0  0
  3 31  2  0  0  0  0
  3 32  1  0  0  0  0
  4 15  1  0  0  0  0
  5 10  1  0  0  0  0
  5 16  1  0  0  0  0
  6 11  1  0  0  0  0
  6 17  1  0  0  0  0
  7  8  1  0  0  0  0
  7 18  1  0  0  0  0
  8 19  1  0  0  0  0
  9 12  1  0  0  0  0
  9 19  1  0  0  0  0
 10 21  1  0  0  0  0
 11 20  1  0  0  0  0
 12 22  1  0  0  0  0
 13 14  1  0  0  0  0
 13 22  1  0  0  0  0
 14 19  1  0  0  0  0
 15 20  1  0  0  0  0
 15 21  1  0  0  0  0
 16 20  1  0  0  0  0
 16 23  1  0  0  0  0
 17 23  1  0  0  0  0
 17 33  1  0  0  0  0
 18 21  1  0  0  0  0
 18 24  1  0  0  0  0
 20 25  1  0  0  0  0
 21 26  1  0  0  0  0
 22 27  1  0  0  0  0
 22 28  1  0  0  0  0
 23 29  1  0  0  0  0
 23 30  1  0  0  0  0
  1 34  1  0  0  0  0
  4 35  1  0  0  0  0
  4 36  1  0  0  0  0
  5 37  1  0  0  0  0
  5 38  1  0  0  0  0
  6 39  1  0  0  0  0
  6 40  1  0  0  0  0
  7 41  1  0  0  0  0
  7 42  1  0  0  0  0
  8 43  1  0  0  0  0
  8 44  1  0  0  0  0
  9 45  1  0  0  0  0
  9 46  1  0  0  0  0
 10 47  1  0  0  0  0
 10 48  1  0  0  0  0
 11 49  1  0  0  0  0
 11 50  1  0  0  0  0
 12 51  1  0  0  0  0
 12 52  1  0  0  0  0
 13 53  1  0  0  0  0
 13 54  1  0  0  0  0
 14 55  1  0  0  0  0
 15 56  1  0  0  0  0
 16 57  1  0  0  0  0
 17 58  1  0  0  0  0
 24 59  1  0  0  0  0
 24 60  1  0  0  0  0
 24 61  1  0  0  0  0
 25 62  1  0  0  0  0
 25 63  1  0  0  0  0
 25 64  1  0  0  0  0
 26 65  1  0  0  0  0
 26 66  1  0  0  0  0
 26 67  1  0  0  0  0
 27 68  1  0  0  0  0
 27 69  1  0  0  0  0
 27 70  1  0  0  0  0
 28 71  1  0  0  0  0
 28 72  1  0  0  0  0
 28 73  1  0  0  0  0
 29 74  1  0  0  0  0
 29 75  1  0  0  0  0
 29 76  1  0  0  0  0
 30 77  1  0  0  0  0
 30 78  1  0  0  0  0
 30 79  1  0  0  0  0
 32 80  1  0  0  0  0
 33 81  1  0  0  0  0
M  END
> <id>
EN300-718147

> <smiles>
CC1(C)CCC2(CCC3(C)C(=CCC4C5(C)CCC(O)C(C)(C)C5CCC43C)C2C1)C(=O)O

> <MDLNUMBER>
MFCD01004614

> <IUPAC Name>
10-hydroxy-2,2,6a,6b,9,9,12a-heptamethyl-1,2,3,4,4a,5,6,6a,6b,7,8,8a,9,10,11,12,12a,12b,13,14b-icosahydropicene-4a-carboxylic acid

> <CAS>
856832-77-4

> <URL>
https://www.enaminestore.com/catalog/EN300-718147

> <ROCS_ShapeQuery>
_x0404_0B

> <ROCS_TanimotoCombo>
0.446 

> <ROCS_ShapeTanimoto>
0.395 

> <ROCS_ColorTanimoto>
0.051 

> <ROCS_RefTversky>
0.356 

> <ROCS_RefColorTversky>
0.059 

> <ROCS_RefTverskyCombo>
0.415 

> <ROCS_FitTversky>
1.380 

> <ROCS_FitColorTversky>
0.281 

> <ROCS_FitTverskyCombo>
1.661 

> <ROCS_ColorScore>
-4.271

> <ROCS_Overlap>
2383.606

> <ROCS_Rank>
133                 

$$$$
untitled-dbase-103844_79
  -OEChem-08222312023D

 40 43  0     1  0  0  0  0  0999 V2000
   -9.4295    2.4011   -7.5263 C   0  0  0  0  0  0  0  0  0  0  0  0
   -9.4315    3.7615   -7.1863 C   0  0  0  0  0  0  0  0  0  0  0  0
   -9.0225    1.9909   -8.7950 C   0  0  0  0  0  0  0  0  0  0  0  0
   -9.0287    4.7300   -8.1114 C   0  0  0  0  0  0  0  0  0  0  0  0
   -9.9782    5.3635  -15.8635 C   0  0  0  0  0  0  0  0  0  0  0  0
   -9.7901    4.7122  -17.0699 C   0  0  0  0  0  0  0  0  0  0  0  0
   -8.6348    2.9637   -9.7013 C   0  0  0  0  0  0  0  0  0  0  0  0
   -8.6333    4.3255   -9.3764 C   0  0  0  0  0  0  0  0  0  0  0  0
   -8.8734    5.9188  -15.2500 C   0  0  0  0  0  0  0  0  0  0  0  0
   -8.5097    4.6595  -17.5830 C   0  0  0  0  0  0  0  0  0  0  0  0
   -8.9960    6.6257  -13.9709 C   0  0  0  0  0  0  0  0  0  0  0  0
   -8.1142    2.7763  -11.0943 C   0  0  0  0  0  0  0  0  0  0  0  0
   -9.3176    7.2716  -10.7732 C   0  0  0  0  0  0  0  0  0  0  0  0
   -8.0188    6.5248  -10.4727 C   0  0  0  0  0  0  0  0  0  0  0  0
  -10.2215    6.6418  -11.8372 C   0  0  0  0  0  0  0  0  0  0  0  0
   -9.2411    4.4871  -12.6064 C   0  0  0  0  0  0  0  0  0  0  0  0
   -8.0848    4.2385  -11.6201 C   0  0  1  0  0  0  0  0  0  0  0  0
   -7.6316    5.8520  -15.7751 N   0  0  0  0  0  0  0  0  0  0  0  0
   -7.4469    5.2121  -16.9609 N   0  0  0  0  0  0  0  0  0  0  0  0
   -8.2016    5.0938  -10.4351 N   0  0  3  0  0  0  0  0  0  0  0  0
   -9.4878    5.9140  -12.8725 N   0  0  0  0  0  0  0  0  0  0  0  0
   -8.6447    7.8043  -13.9616 O   0  0  0  0  0  0  0  0  0  0  0  0
   -8.1641    3.8792  -19.0674 Cl  0  0  0  0  0  0  0  0  0  0  0  0
   -9.7441    1.6627   -6.7935 H   0  0  0  0  0  0  0  0  0  0  0  0
   -9.7486    4.0654   -6.1920 H   0  0  0  0  0  0  0  0  0  0  0  0
   -9.0120    0.9398   -9.0591 H   0  0  0  0  0  0  0  0  0  0  0  0
   -9.0366    5.7760   -7.8263 H   0  0  0  0  0  0  0  0  0  0  0  0
  -10.9676    5.4293  -15.4229 H   0  0  0  0  0  0  0  0  0  0  0  0
  -10.6310    4.2615  -17.5858 H   0  0  0  0  0  0  0  0  0  0  0  0
   -7.1035    2.3629  -11.0540 H   0  0  0  0  0  0  0  0  0  0  0  0
   -8.7639    2.1203  -11.6733 H   0  0  0  0  0  0  0  0  0  0  0  0
   -9.8960    7.4218   -9.8445 H   0  0  0  0  0  0  0  0  0  0  0  0
   -9.0569    8.2898  -11.1117 H   0  0  0  0  0  0  0  0  0  0  0  0
   -7.2611    6.7821  -11.2312 H   0  0  0  0  0  0  0  0  0  0  0  0
   -7.6029    6.8780   -9.5152 H   0  0  0  0  0  0  0  0  0  0  0  0
  -10.9356    5.9762  -11.3412 H   0  0  0  0  0  0  0  0  0  0  0  0
  -10.8217    7.4199  -12.3245 H   0  0  0  0  0  0  0  0  0  0  0  0
   -9.0180    4.0071  -13.5624 H   0  0  0  0  0  0  0  0  0  0  0  0
  -10.1610    4.0317  -12.2339 H   0  0  0  0  0  0  0  0  0  0  0  0
   -7.1552    4.4126  -12.1265 H   0  0  0  0  0  0  0  0  0  0  0  0
  1  2  2  0  0  0  0
  1  3  1  0  0  0  0
  2  4  1  0  0  0  0
  3  7  2  0  0  0  0
  4  8  2  0  0  0  0
  5  6  1  0  0  0  0
  5  9  2  0  0  0  0
  6 10  2  0  0  0  0
  7  8  1  0  0  0  0
  7 12  1  0  0  0  0
  8 20  1  0  0  0  0
  9 11  1  0  0  0  0
  9 18  1  0  0  0  0
 10 19  1  0  0  0  0
 10 23  1  0  0  0  0
 11 21  1  0  0  0  0
 11 22  2  0  0  0  0
 12 17  1  0  0  0  0
 13 14  1  0  0  0  0
 13 15  1  0  0  0  0
 14 20  1  0  0  0  0
 15 21  1  0  0  0  0
 16 17  1  0  0  0  0
 16 21  1  0  0  0  0
 17 20  1  0  0  0  0
 18 19  2  0  0  0  0
  1 24  1  0  0  0  0
  2 25  1  0  0  0  0
  3 26  1  0  0  0  0
  4 27  1  0  0  0  0
  5 28  1  0  0  0  0
  6 29  1  0  0  0  0
 12 30  1  0  0  0  0
 12 31  1  0  0  0  0
 13 32  1  0  0  0  0
 13 33  1  0  0  0  0
 14 34  1  0  0  0  0
 14 35  1  0  0  0  0
 15 36  1  0  0  0  0
 15 37  1  0  0  0  0
 16 38  1  0  0  0  0
 16 39  1  0  0  0  0
 17 40  1  0  0  0  0
M  END
> <id>
EN300-26617603

> <smiles>
ClC=1C=CC(=NN1)C(=O)N2CCCN3C(CC=4C=CC=CC34)C2

> <IUPAC Name>
3-{1H,2H,3H,4H,5H,11H,11aH-[1,4]diazepino[1,2-a]indole-2-carbonyl}-6-chloropyridazine

> <CAS>
2109586-73-2

> <URL>
https://www.enaminestore.com/catalog/EN300-26617603

> <ROCS_ShapeQuery>
_x0404_0B

> <ROCS_TanimotoCombo>
0.446 

> <ROCS_ShapeTanimoto>
0.367 

> <ROCS_ColorTanimoto>
0.078 

> <ROCS_RefTversky>
0.323 

> <ROCS_RefColorTversky>
0.083 

> <ROCS_RefTverskyCombo>
0.407 

> <ROCS_FitTversky>
1.595 

> <ROCS_FitColorTversky>
0.560 

> <ROCS_FitTverskyCombo>
2.154 

> <ROCS_ColorScore>
-6.023

> <ROCS_Overlap>
2157.723

> <ROCS_Rank>
134                 

$$$$
untitled-dbase-34031_94
  -OEChem-08222312023D

 54 56  0     0  0  0  0  0  0999 V2000
   -8.7392    4.8107  -16.2791 B   0  0  0  0  0  0  0  0  0  0  0  0
   -8.9664    3.4817  -14.0974 C   0  0  0  0  0  0  0  0  0  0  0  0
   -9.0171    3.3729  -12.7039 C   0  0  0  0  0  0  0  0  0  0  0  0
   -8.6654    5.8751  -13.9460 C   0  0  0  0  0  0  0  0  0  0  0  0
   -8.6176    6.7547  -11.5083 C   0  0  0  0  0  0  0  0  0  0  0  0
   -8.7932    4.7150  -14.7125 C   0  0  0  0  0  0  0  0  0  0  0  0
   -8.7135    5.7903  -12.5387 C   0  0  0  0  0  0  0  0  0  0  0  0
   -8.8892    4.5410  -11.9280 C   0  0  0  0  0  0  0  0  0  0  0  0
   -8.7339    6.0958  -10.3101 C   0  0  0  0  0  0  0  0  0  0  0  0
   -9.0543    3.7530   -9.5569 C   0  0  0  0  0  0  0  0  0  0  0  0
   -9.4391    4.8290  -18.4596 C   0  0  0  0  0  0  0  0  0  0  0  0
   -7.8918    5.0558  -18.3926 C   0  0  0  0  0  0  0  0  0  0  0  0
   -8.6905    6.7228   -8.9677 C   0  0  0  0  0  0  0  0  0  0  0  0
  -10.2688    6.0961  -18.7665 C   0  0  0  0  0  0  0  0  0  0  0  0
   -9.8838    3.7278  -19.4324 C   0  0  0  0  0  0  0  0  0  0  0  0
   -7.3863    6.2658  -19.1909 C   0  0  0  0  0  0  0  0  0  0  0  0
   -7.0378    3.8323  -18.7948 C   0  0  0  0  0  0  0  0  0  0  0  0
   -8.0259    2.3826   -7.2950 C   0  0  0  0  0  0  0  0  0  0  0  0
   -9.0853    4.2123   -5.9389 C   0  0  0  0  0  0  0  0  0  0  0  0
  -10.5203    2.7129   -7.3533 C   0  0  0  0  0  0  0  0  0  0  0  0
   -9.1621    3.4023   -7.2312 C   0  0  0  0  0  0  0  0  0  0  0  0
   -8.9009    4.7417  -10.5435 N   0  0  0  0  0  0  0  0  0  0  0  0
   -9.1972    2.5768   -9.8472 O   0  0  0  0  0  0  0  0  0  0  0  0
   -9.7897    4.4059  -17.1025 O   0  0  0  0  0  0  0  0  0  0  0  0
   -7.6364    5.3084  -16.9732 O   0  0  0  0  0  0  0  0  0  0  0  0
   -9.0155    4.3163   -8.3223 O   0  0  0  0  0  0  0  0  0  0  0  0
   -9.0670    2.5680  -14.6820 H   0  0  0  0  0  0  0  0  0  0  0  0
   -9.1529    2.3936  -12.2596 H   0  0  0  0  0  0  0  0  0  0  0  0
   -8.5282    6.8501  -14.4096 H   0  0  0  0  0  0  0  0  0  0  0  0
   -8.4782    7.8207  -11.6302 H   0  0  0  0  0  0  0  0  0  0  0  0
   -9.6987    7.0179   -8.6412 H   0  0  0  0  0  0  0  0  0  0  0  0
   -8.2745    6.0389   -8.2117 H   0  0  0  0  0  0  0  0  0  0  0  0
   -8.0530    7.6206   -8.9577 H   0  0  0  0  0  0  0  0  0  0  0  0
  -11.3184    5.8312  -18.7903 H   0  0  0  0  0  0  0  0  0  0  0  0
   -9.9643    6.4906  -19.7278 H   0  0  0  0  0  0  0  0  0  0  0  0
  -10.0890    6.8298  -17.9907 H   0  0  0  0  0  0  0  0  0  0  0  0
  -10.9664    3.6430  -19.4113 H   0  0  0  0  0  0  0  0  0  0  0  0
   -9.4399    2.7824  -19.1349 H   0  0  0  0  0  0  0  0  0  0  0  0
   -9.5591    3.9812  -20.4374 H   0  0  0  0  0  0  0  0  0  0  0  0
   -6.3081    6.3430  -19.0858 H   0  0  0  0  0  0  0  0  0  0  0  0
   -7.8535    7.1697  -18.8110 H   0  0  0  0  0  0  0  0  0  0  0  0
   -7.6407    6.1387  -20.2391 H   0  0  0  0  0  0  0  0  0  0  0  0
   -5.9902    4.0938  -18.7144 H   0  0  0  0  0  0  0  0  0  0  0  0
   -7.2744    3.5596  -19.8156 H   0  0  0  0  0  0  0  0  0  0  0  0
   -7.2670    3.0101  -18.1287 H   0  0  0  0  0  0  0  0  0  0  0  0
   -8.0775    1.7991   -8.2212 H   0  0  0  0  0  0  0  0  0  0  0  0
   -7.0455    2.8674   -7.2437 H   0  0  0  0  0  0  0  0  0  0  0  0
   -8.0997    1.6629   -6.4718 H   0  0  0  0  0  0  0  0  0  0  0  0
   -9.8987    4.9452   -5.8889 H   0  0  0  0  0  0  0  0  0  0  0  0
   -8.1514    4.7841   -5.8916 H   0  0  0  0  0  0  0  0  0  0  0  0
   -9.1433    3.5692   -5.0549 H   0  0  0  0  0  0  0  0  0  0  0  0
  -11.3355    3.4441   -7.3076 H   0  0  0  0  0  0  0  0  0  0  0  0
  -10.6073    2.1567   -8.2923 H   0  0  0  0  0  0  0  0  0  0  0  0
  -10.6810    2.0183   -6.5209 H   0  0  0  0  0  0  0  0  0  0  0  0
  1  6  1  0  0  0  0
  1 24  1  0  0  0  0
  1 25  1  0  0  0  0
  2  3  1  0  0  0  0
  2  6  2  0  0  0  0
  3  8  2  0  0  0  0
  4  6  1  0  0  0  0
  4  7  2  0  0  0  0
  5  7  1  0  0  0  0
  5  9  2  0  0  0  0
  7  8  1  0  0  0  0
  8 22  1  0  0  0  0
  9 13  1  0  0  0  0
  9 22  1  0  0  0  0
 10 22  1  0  0  0  0
 10 23  2  0  0  0  0
 10 26  1  0  0  0  0
 11 12  1  0  0  0  0
 11 14  1  0  0  0  0
 11 15  1  0  0  0  0
 11 24  1  0  0  0  0
 12 16  1  0  0  0  0
 12 17  1  0  0  0  0
 12 25  1  0  0  0  0
 18 21  1  0  0  0  0
 19 21  1  0  0  0  0
 20 21  1  0  0  0  0
 21 26  1  0  0  0  0
  2 27  1  0  0  0  0
  3 28  1  0  0  0  0
  4 29  1  0  0  0  0
  5 30  1  0  0  0  0
 13 31  1  0  0  0  0
 13 32  1  0  0  0  0
 13 33  1  0  0  0  0
 14 34  1  0  0  0  0
 14 35  1  0  0  0  0
 14 36  1  0  0  0  0
 15 37  1  0  0  0  0
 15 38  1  0  0  0  0
 15 39  1  0  0  0  0
 16 40  1  0  0  0  0
 16 41  1  0  0  0  0
 16 42  1  0  0  0  0
 17 43  1  0  0  0  0
 17 44  1  0  0  0  0
 17 45  1  0  0  0  0
 18 46  1  0  0  0  0
 18 47  1  0  0  0  0
 18 48  1  0  0  0  0
 19 49  1  0  0  0  0
 19 50  1  0  0  0  0
 19 51  1  0  0  0  0
 20 52  1  0  0  0  0
 20 53  1  0  0  0  0
 20 54  1  0  0  0  0
M  END
> <id>
EN300-729651

> <smiles>
CC1=CC=2C=C(C=CC2N1C(=O)OC(C)(C)C)B3OC(C)(C)C(C)(C)O3

> <MDLNUMBER>
MFCD31446548

> <IUPAC Name>
tert-butyl 2-methyl-5-(tetramethyl-1,3,2-dioxaborolan-2-yl)-1H-indole-1-carboxylate

> <CAS>
2565843-51-6

> <Purity>
95

> <URL>
https://www.enaminestore.com/catalog/EN300-729651

> <ROCS_ShapeQuery>
_x0404_0B

> <ROCS_TanimotoCombo>
0.446 

> <ROCS_ShapeTanimoto>
0.405 

> <ROCS_ColorTanimoto>
0.041 

> <ROCS_RefTversky>
0.352 

> <ROCS_RefColorTversky>
0.045 

> <ROCS_RefTverskyCombo>
0.396 

> <ROCS_FitTversky>
1.599 

> <ROCS_FitColorTversky>
0.309 

> <ROCS_FitTverskyCombo>
1.908 

> <ROCS_ColorScore>
-3.228

> <ROCS_Overlap>
2350.265

> <ROCS_Rank>
135                 

$$$$
untitled-dbase-53849_569
  -OEChem-08222312023D

 48 50  0     1  0  0  0  0  0999 V2000
   -8.6947    5.7761  -14.1962 C   0  0  0  0  0  0  0  0  0  0  0  0
   -8.9805    3.5707   -6.7346 C   0  0  0  0  0  0  0  0  0  0  0  0
  -10.3964    3.5725   -7.3121 C   0  0  0  0  0  0  0  0  0  0  0  0
   -7.5613    3.9229   -8.8518 C   0  0  0  0  0  0  0  0  0  0  0  0
   -9.9245    3.9307   -9.8169 C   0  0  0  0  0  0  0  0  0  0  0  0
   -9.0691    6.2315  -11.7056 C   0  0  0  0  0  0  0  0  0  0  0  0
   -7.9580    4.4316  -12.0818 C   0  0  0  0  0  0  0  0  0  0  0  0
   -8.1237    2.9248   -7.8217 C   0  0  2  0  0  0  0  0  0  0  0  0
  -10.2494    2.9307   -8.6904 C   0  0  1  0  0  0  0  0  0  0  0  0
   -8.1200    5.3602  -10.8621 C   0  0  0  0  0  0  0  0  0  0  0  0
   -8.6500    4.7619   -9.5565 C   0  0  0  0  0  0  0  0  0  0  0  0
   -7.4581    5.7095  -16.8551 C   0  0  0  0  0  0  0  0  0  0  0  0
   -8.8383    3.6409  -17.2088 C   0  0  0  0  0  0  0  0  0  0  0  0
   -9.9709    5.8524  -16.8424 C   0  0  0  0  0  0  0  0  0  0  0  0
   -8.7578    4.9898  -16.4975 C   0  0  0  0  0  0  0  0  0  0  0  0
   -9.0827    2.0497   -8.5162 N   0  0  0  0  0  0  0  0  0  0  0  0
   -8.6378    5.4542  -12.8610 N   0  0  0  0  0  0  0  0  0  0  0  0
   -6.8639    6.0983  -10.6804 N   0  0  0  0  0  0  0  0  0  0  0  0
   -8.6251    6.9337  -14.6087 O   0  0  0  0  0  0  0  0  0  0  0  0
   -9.0081    5.8655   -8.7167 O   0  0  0  0  0  0  0  0  0  0  0  0
   -8.7650    4.7347  -15.0837 O   0  0  0  0  0  0  0  0  0  0  0  0
   -8.6405    4.5740   -6.4611 H   0  0  0  0  0  0  0  0  0  0  0  0
   -8.9650    2.9591   -5.8240 H   0  0  0  0  0  0  0  0  0  0  0  0
  -11.0456    2.9609   -6.6735 H   0  0  0  0  0  0  0  0  0  0  0  0
  -10.8280    4.5772   -7.3525 H   0  0  0  0  0  0  0  0  0  0  0  0
   -6.8479    4.5884   -8.3487 H   0  0  0  0  0  0  0  0  0  0  0  0
   -6.9887    3.3567   -9.5991 H   0  0  0  0  0  0  0  0  0  0  0  0
   -9.8115    3.3659  -10.7524 H   0  0  0  0  0  0  0  0  0  0  0  0
  -10.7850    4.5972   -9.9573 H   0  0  0  0  0  0  0  0  0  0  0  0
  -10.1373    6.0991  -11.5051 H   0  0  0  0  0  0  0  0  0  0  0  0
   -8.8407    7.2988  -11.7836 H   0  0  0  0  0  0  0  0  0  0  0  0
   -6.9405    4.2207  -12.4255 H   0  0  0  0  0  0  0  0  0  0  0  0
   -8.5321    3.4997  -12.0462 H   0  0  0  0  0  0  0  0  0  0  0  0
   -7.3052    2.3423   -7.3868 H   0  0  0  0  0  0  0  0  0  0  0  0
  -11.1408    2.3530   -8.9554 H   0  0  0  0  0  0  0  0  0  0  0  0
   -7.3965    6.6783  -16.3465 H   0  0  0  0  0  0  0  0  0  0  0  0
   -6.5798    5.1162  -16.5806 H   0  0  0  0  0  0  0  0  0  0  0  0
   -7.4111    5.9209  -17.9295 H   0  0  0  0  0  0  0  0  0  0  0  0
   -9.7692    3.1210  -16.9552 H   0  0  0  0  0  0  0  0  0  0  0  0
   -8.0211    2.9830  -16.8917 H   0  0  0  0  0  0  0  0  0  0  0  0
   -8.7899    3.7542  -18.2967 H   0  0  0  0  0  0  0  0  0  0  0  0
  -10.9033    5.3365  -16.5861 H   0  0  0  0  0  0  0  0  0  0  0  0
   -9.9488    6.8100  -16.3121 H   0  0  0  0  0  0  0  0  0  0  0  0
  -10.0138    6.0517  -17.9193 H   0  0  0  0  0  0  0  0  0  0  0  0
   -9.3186    1.2401   -7.9444 H   0  0  0  0  0  0  0  0  0  0  0  0
   -6.7281    6.2286   -9.7086 H   0  0  0  0  0  0  0  0  0  0  0  0
   -6.1356    5.5550  -11.0731 H   0  0  0  0  0  0  0  0  0  0  0  0
   -8.1990    6.3819   -8.5849 H   0  0  0  0  0  0  0  0  0  0  0  0
  1 17  1  0  0  0  0
  1 19  2  0  0  0  0
  1 21  1  0  0  0  0
  2  3  1  0  0  0  0
  2  8  1  0  0  0  0
  3  9  1  0  0  0  0
  4  8  1  0  0  0  0
  4 11  1  0  0  0  0
  5  9  1  0  0  0  0
  5 11  1  0  0  0  0
  6 10  1  0  0  0  0
  6 17  1  0  0  0  0
  7 10  1  0  0  0  0
  7 17  1  0  0  0  0
  8 16  1  0  0  0  0
  9 16  1  0  0  0  0
 10 11  1  0  0  0  0
 10 18  1  0  0  0  0
 11 20  1  0  0  0  0
 12 15  1  0  0  0  0
 13 15  1  0  0  0  0
 14 15  1  0  0  0  0
 15 21  1  0  0  0  0
  2 22  1  0  0  0  0
  2 23  1  0  0  0  0
  3 24  1  0  0  0  0
  3 25  1  0  0  0  0
  4 26  1  0  0  0  0
  4 27  1  0  0  0  0
  5 28  1  0  0  0  0
  5 29  1  0  0  0  0
  6 30  1  0  0  0  0
  6 31  1  0  0  0  0
  7 32  1  0  0  0  0
  7 33  1  0  0  0  0
  8 34  1  0  0  0  0
  9 35  1  0  0  0  0
 12 36  1  0  0  0  0
 12 37  1  0  0  0  0
 12 38  1  0  0  0  0
 13 39  1  0  0  0  0
 13 40  1  0  0  0  0
 13 41  1  0  0  0  0
 14 42  1  0  0  0  0
 14 43  1  0  0  0  0
 14 44  1  0  0  0  0
 16 45  1  0  0  0  0
 18 46  1  0  0  0  0
 18 47  1  0  0  0  0
 20 48  1  0  0  0  0
M  END
> <id>
EN300-1644095

> <smiles>
CC(C)(C)OC(=O)N1CC(N)(C1)C2(O)CC3CCC(C2)N3

> <IUPAC Name>
tert-butyl 3-amino-3-{3-hydroxy-8-azabicyclo[3.2.1]octan-3-yl}azetidine-1-carboxylate

> <CAS>
2171689-68-0

> <URL>
https://www.enaminestore.com/catalog/EN300-1644095

> <ROCS_ShapeQuery>
_x0404_0B

> <ROCS_TanimotoCombo>
0.445 

> <ROCS_ShapeTanimoto>
0.320 

> <ROCS_ColorTanimoto>
0.125 

> <ROCS_RefTversky>
0.288 

> <ROCS_RefColorTversky>
0.138 

> <ROCS_RefTverskyCombo>
0.426 

> <ROCS_FitTversky>
1.542 

> <ROCS_FitColorTversky>
0.564 

> <ROCS_FitTverskyCombo>
2.106 

> <ROCS_ColorScore>
-10.047

> <ROCS_Overlap>
1920.874

> <ROCS_Rank>
136                 

$$$$
untitled-dbase-101562_700
  -OEChem-08222312023D

 53 55  0     0  0  0  0  0  0999 V2000
   -8.6365    4.3179  -17.2339 C   0  0  0  0  0  0  0  0  0  0  0  0
   -8.4873    3.5821  -16.0635 C   0  0  0  0  0  0  0  0  0  0  0  0
   -7.9553    6.2583  -16.0391 C   0  0  0  0  0  0  0  0  0  0  0  0
   -8.3674    5.6820  -17.2299 C   0  0  0  0  0  0  0  0  0  0  0  0
   -8.0696    4.2523  -14.9251 C   0  0  0  0  0  0  0  0  0  0  0  0
   -9.6962    3.2076   -8.2542 C   0  0  0  0  0  0  0  0  0  0  0  0
   -6.7952    4.0818  -12.7093 C   0  0  0  0  0  0  0  0  0  0  0  0
   -9.1702    3.2649  -12.7656 C   0  0  0  0  0  0  0  0  0  0  0  0
   -7.2530    5.3613  -12.0118 C   0  0  0  0  0  0  0  0  0  0  0  0
   -9.6210    4.5186  -12.0094 C   0  0  0  0  0  0  0  0  0  0  0  0
   -9.8240    5.6763   -8.6674 C   0  0  0  0  0  0  0  0  0  0  0  0
   -8.1842    4.2906   -9.9059 C   0  0  0  0  0  0  0  0  0  0  0  0
   -9.0441    6.7547   -9.3993 C   0  0  0  0  0  0  0  0  0  0  0  0
   -7.8938    3.4745  -13.6175 C   0  0  0  0  0  0  0  0  0  0  0  0
   -8.5113    5.1555  -11.1471 C   0  0  0  0  0  0  0  0  0  0  0  0
  -10.0815    1.7335   -5.8336 C   0  0  0  0  0  0  0  0  0  0  0  0
  -12.3146    2.8767   -5.7092 C   0  0  0  0  0  0  0  0  0  0  0  0
  -11.7945    1.3546   -7.6382 C   0  0  0  0  0  0  0  0  0  0  0  0
  -11.2199    2.3578   -6.6391 C   0  0  0  0  0  0  0  0  0  0  0  0
   -7.7989    5.5762  -14.8825 N   0  0  0  0  0  0  0  0  0  0  0  0
   -9.2574    4.3538   -8.9180 N   0  0  0  0  0  0  0  0  0  0  0  0
   -9.2433    2.0800   -8.4394 O   0  0  0  0  0  0  0  0  0  0  0  0
   -8.9803    6.4739  -10.7936 O   0  0  0  0  0  0  0  0  0  0  0  0
   -7.4539    2.1678  -14.0272 O   0  0  0  0  0  0  0  0  0  0  0  0
  -10.7032    3.4790   -7.3649 O   0  0  0  0  0  0  0  0  0  0  0  0
   -8.5571    6.7140  -18.7938 Br  0  0  0  0  0  0  0  0  0  0  0  0
   -8.9631    3.8151  -18.1403 H   0  0  0  0  0  0  0  0  0  0  0  0
   -8.6936    2.5171  -16.0539 H   0  0  0  0  0  0  0  0  0  0  0  0
   -7.7298    7.3183  -15.9693 H   0  0  0  0  0  0  0  0  0  0  0  0
   -5.9002    4.2979  -13.3035 H   0  0  0  0  0  0  0  0  0  0  0  0
   -6.5047    3.3536  -11.9438 H   0  0  0  0  0  0  0  0  0  0  0  0
   -9.0000    2.4618  -12.0337 H   0  0  0  0  0  0  0  0  0  0  0  0
   -9.9938    2.9259  -13.4119 H   0  0  0  0  0  0  0  0  0  0  0  0
   -6.4337    5.7475  -11.3849 H   0  0  0  0  0  0  0  0  0  0  0  0
   -7.4197    6.1284  -12.7815 H   0  0  0  0  0  0  0  0  0  0  0  0
   -9.9790    5.2492  -12.7543 H   0  0  0  0  0  0  0  0  0  0  0  0
  -10.4910    4.2718  -11.3787 H   0  0  0  0  0  0  0  0  0  0  0  0
   -9.8718    5.9042   -7.5943 H   0  0  0  0  0  0  0  0  0  0  0  0
  -10.8595    5.6430   -9.0395 H   0  0  0  0  0  0  0  0  0  0  0  0
   -8.1018    3.2338  -10.1922 H   0  0  0  0  0  0  0  0  0  0  0  0
   -7.2253    4.5852   -9.4642 H   0  0  0  0  0  0  0  0  0  0  0  0
   -9.5522    7.7151   -9.2828 H   0  0  0  0  0  0  0  0  0  0  0  0
   -8.0384    6.8728   -8.9895 H   0  0  0  0  0  0  0  0  0  0  0  0
   -9.2937    1.3598   -6.4975 H   0  0  0  0  0  0  0  0  0  0  0  0
   -9.6376    2.4531   -5.1379 H   0  0  0  0  0  0  0  0  0  0  0  0
  -10.4366    0.8704   -5.2589 H   0  0  0  0  0  0  0  0  0  0  0  0
  -13.1335    3.3255   -6.2829 H   0  0  0  0  0  0  0  0  0  0  0  0
  -11.9283    3.6656   -5.0537 H   0  0  0  0  0  0  0  0  0  0  0  0
  -12.7263    2.0775   -5.0844 H   0  0  0  0  0  0  0  0  0  0  0  0
  -12.6112    1.8022   -8.2161 H   0  0  0  0  0  0  0  0  0  0  0  0
  -11.0307    0.9991   -8.3374 H   0  0  0  0  0  0  0  0  0  0  0  0
  -12.2214    0.4888   -7.1191 H   0  0  0  0  0  0  0  0  0  0  0  0
   -6.6216    2.2953  -14.5081 H   0  0  0  0  0  0  0  0  0  0  0  0
  1  2  1  0  0  0  0
  1  4  2  0  0  0  0
  2  5  2  0  0  0  0
  3  4  1  0  0  0  0
  3 20  2  0  0  0  0
  4 26  1  0  0  0  0
  5 14  1  0  0  0  0
  5 20  1  0  0  0  0
  6 21  1  0  0  0  0
  6 22  2  0  0  0  0
  6 25  1  0  0  0  0
  7  9  1  0  0  0  0
  7 14  1  0  0  0  0
  8 10  1  0  0  0  0
  8 14  1  0  0  0  0
  9 15  1  0  0  0  0
 10 15  1  0  0  0  0
 11 13  1  0  0  0  0
 11 21  1  0  0  0  0
 12 15  1  0  0  0  0
 12 21  1  0  0  0  0
 13 23  1  0  0  0  0
 14 24  1  0  0  0  0
 15 23  1  0  0  0  0
 16 19  1  0  0  0  0
 17 19  1  0  0  0  0
 18 19  1  0  0  0  0
 19 25  1  0  0  0  0
  1 27  1  0  0  0  0
  2 28  1  0  0  0  0
  3 29  1  0  0  0  0
  7 30  1  0  0  0  0
  7 31  1  0  0  0  0
  8 32  1  0  0  0  0
  8 33  1  0  0  0  0
  9 34  1  0  0  0  0
  9 35  1  0  0  0  0
 10 36  1  0  0  0  0
 10 37  1  0  0  0  0
 11 38  1  0  0  0  0
 11 39  1  0  0  0  0
 12 40  1  0  0  0  0
 12 41  1  0  0  0  0
 13 42  1  0  0  0  0
 13 43  1  0  0  0  0
 16 44  1  0  0  0  0
 16 45  1  0  0  0  0
 16 46  1  0  0  0  0
 17 47  1  0  0  0  0
 17 48  1  0  0  0  0
 17 49  1  0  0  0  0
 18 50  1  0  0  0  0
 18 51  1  0  0  0  0
 18 52  1  0  0  0  0
 24 53  1  0  0  0  0
M  END
> <id>
EN300-7429091

> <smiles>
CC(C)(C)OC(=O)N1CCOC2(CCC(O)(CC2)C=3C=CC(Br)=CN3)C1

> <IUPAC Name>
tert-butyl 9-(5-bromopyridin-2-yl)-9-hydroxy-1-oxa-4-azaspiro[5.5]undecane-4-carboxylate

> <CAS>
2309446-96-4

> <URL>
https://www.enaminestore.com/catalog/EN300-7429091

> <ROCS_ShapeQuery>
_x0404_0B

> <ROCS_TanimotoCombo>
0.445 

> <ROCS_ShapeTanimoto>
0.322 

> <ROCS_ColorTanimoto>
0.123 

> <ROCS_RefTversky>
0.296 

> <ROCS_RefColorTversky>
0.130 

> <ROCS_RefTverskyCombo>
0.426 

> <ROCS_FitTversky>
1.370 

> <ROCS_FitColorTversky>
0.708 

> <ROCS_FitTverskyCombo>
2.078 

> <ROCS_ColorScore>
-9.403

> <ROCS_Overlap>
1979.452

> <ROCS_Rank>
137                 

$$$$
untitled-dbase-136279_117
  -OEChem-08222312023D

 54 56  0     1  0  0  0  0  0999 V2000
   -8.7705    4.6725  -15.6156 B   0  0  0  0  0  0  0  0  0  0  0  0
   -8.9299    4.2696  -13.1514 C   0  0  0  0  0  0  0  0  0  0  0  0
   -9.1930    3.8526  -14.3911 C   0  0  0  0  0  0  0  0  0  0  0  0
   -8.8235    5.3616   -8.8861 C   0  0  0  0  0  0  0  0  0  0  0  0
   -9.2204    3.6813  -11.7877 C   0  0  0  0  0  0  0  0  0  0  0  0
   -9.0966    6.7303  -12.3055 C   0  0  0  0  0  0  0  0  0  0  0  0
   -8.9492    6.9598  -10.8046 C   0  0  0  0  0  0  0  0  0  0  0  0
   -8.2362    5.5004  -12.6088 C   0  0  1  0  0  0  0  0  0  0  0  0
   -8.1895    4.7106  -11.2728 C   0  0  1  0  0  0  0  0  0  0  0  0
   -7.7064    6.2550  -16.8814 C   0  0  0  0  0  0  0  0  0  0  0  0
   -8.6489    5.3909  -17.7852 C   0  0  0  0  0  0  0  0  0  0  0  0
   -7.8846    7.7722  -17.0353 C   0  0  0  0  0  0  0  0  0  0  0  0
   -6.2004    5.9383  -17.0235 C   0  0  0  0  0  0  0  0  0  0  0  0
   -7.9828    4.8210  -19.0456 C   0  0  0  0  0  0  0  0  0  0  0  0
   -9.9569    6.0919  -18.2167 C   0  0  0  0  0  0  0  0  0  0  0  0
  -10.9058    3.8135   -8.5303 C   0  0  0  0  0  0  0  0  0  0  0  0
   -9.3657    1.8299   -8.4774 C   0  0  0  0  0  0  0  0  0  0  0  0
   -9.4713    3.3842   -6.5074 C   0  0  0  0  0  0  0  0  0  0  0  0
   -9.5665    3.2757   -8.0285 C   0  0  0  0  0  0  0  0  0  0  0  0
   -8.6840    5.6429  -10.2351 N   0  0  0  0  0  0  0  0  0  0  0  0
   -9.1795    6.1784   -8.0404 O   0  0  0  0  0  0  0  0  0  0  0  0
   -8.0952    5.8868  -15.5181 O   0  0  0  0  0  0  0  0  0  0  0  0
   -9.0279    4.2690  -16.9236 O   0  0  0  0  0  0  0  0  0  0  0  0
   -8.5158    4.0571   -8.6079 O   0  0  0  0  0  0  0  0  0  0  0  0
   -9.7190    2.9121  -14.5698 H   0  0  0  0  0  0  0  0  0  0  0  0
  -10.2353    3.8057  -11.4039 H   0  0  0  0  0  0  0  0  0  0  0  0
   -8.9163    2.6409  -11.6489 H   0  0  0  0  0  0  0  0  0  0  0  0
  -10.1357    6.5950  -12.6004 H   0  0  0  0  0  0  0  0  0  0  0  0
   -8.6933    7.5911  -12.8425 H   0  0  0  0  0  0  0  0  0  0  0  0
   -8.1472    7.6613  -10.5574 H   0  0  0  0  0  0  0  0  0  0  0  0
   -9.8814    7.3258  -10.3612 H   0  0  0  0  0  0  0  0  0  0  0  0
   -7.2688    5.7295  -13.0546 H   0  0  0  0  0  0  0  0  0  0  0  0
   -7.2029    4.3015  -11.0257 H   0  0  0  0  0  0  0  0  0  0  0  0
   -7.1921    8.2760  -16.3726 H   0  0  0  0  0  0  0  0  0  0  0  0
   -8.9027    8.0341  -16.7761 H   0  0  0  0  0  0  0  0  0  0  0  0
   -7.6811    8.0471  -18.0627 H   0  0  0  0  0  0  0  0  0  0  0  0
   -5.6315    6.5845  -16.3614 H   0  0  0  0  0  0  0  0  0  0  0  0
   -5.8910    6.1084  -18.0506 H   0  0  0  0  0  0  0  0  0  0  0  0
   -6.0231    4.9002  -16.7580 H   0  0  0  0  0  0  0  0  0  0  0  0
   -8.7133    4.2433  -19.5981 H   0  0  0  0  0  0  0  0  0  0  0  0
   -7.1562    4.1873  -18.7497 H   0  0  0  0  0  0  0  0  0  0  0  0
   -7.6222    5.6412  -19.6535 H   0  0  0  0  0  0  0  0  0  0  0  0
  -10.5405    5.4176  -18.8367 H   0  0  0  0  0  0  0  0  0  0  0  0
   -9.7169    6.9880  -18.7816 H   0  0  0  0  0  0  0  0  0  0  0  0
  -10.5301    6.3616  -17.3345 H   0  0  0  0  0  0  0  0  0  0  0  0
  -11.0536    4.8511   -8.2102 H   0  0  0  0  0  0  0  0  0  0  0  0
  -10.9728    3.7736   -9.6224 H   0  0  0  0  0  0  0  0  0  0  0  0
  -11.7397    3.2389   -8.1112 H   0  0  0  0  0  0  0  0  0  0  0  0
   -8.4060    1.4399   -8.1196 H   0  0  0  0  0  0  0  0  0  0  0  0
   -9.3385    1.7609   -9.5709 H   0  0  0  0  0  0  0  0  0  0  0  0
  -10.1641    1.1778   -8.1087 H   0  0  0  0  0  0  0  0  0  0  0  0
   -8.5107    2.9985   -6.1472 H   0  0  0  0  0  0  0  0  0  0  0  0
   -9.5762    4.4203   -6.1696 H   0  0  0  0  0  0  0  0  0  0  0  0
  -10.2478    2.7800   -6.0243 H   0  0  0  0  0  0  0  0  0  0  0  0
  1  3  1  0  0  0  0
  1 22  1  0  0  0  0
  1 23  1  0  0  0  0
  2  3  2  0  0  0  0
  2  5  1  0  0  0  0
  2  8  1  0  0  0  0
  4 20  1  0  0  0  0
  4 21  2  0  0  0  0
  4 24  1  0  0  0  0
  5  9  1  0  0  0  0
  6  7  1  0  0  0  0
  6  8  1  0  0  0  0
  7 20  1  0  0  0  0
  8  9  1  0  0  0  0
  9 20  1  0  0  0  0
 10 11  1  0  0  0  0
 10 12  1  0  0  0  0
 10 13  1  0  0  0  0
 10 22  1  0  0  0  0
 11 14  1  0  0  0  0
 11 15  1  0  0  0  0
 11 23  1  0  0  0  0
 16 19  1  0  0  0  0
 17 19  1  0  0  0  0
 18 19  1  0  0  0  0
 19 24  1  0  0  0  0
  3 25  1  0  0  0  0
  5 26  1  0  0  0  0
  5 27  1  0  0  0  0
  6 28  1  0  0  0  0
  6 29  1  0  0  0  0
  7 30  1  0  0  0  0
  7 31  1  0  0  0  0
  8 32  1  0  0  0  0
  9 33  1  0  0  0  0
 12 34  1  0  0  0  0
 12 35  1  0  0  0  0
 12 36  1  0  0  0  0
 13 37  1  0  0  0  0
 13 38  1  0  0  0  0
 13 39  1  0  0  0  0
 14 40  1  0  0  0  0
 14 41  1  0  0  0  0
 14 42  1  0  0  0  0
 15 43  1  0  0  0  0
 15 44  1  0  0  0  0
 15 45  1  0  0  0  0
 16 46  1  0  0  0  0
 16 47  1  0  0  0  0
 16 48  1  0  0  0  0
 17 49  1  0  0  0  0
 17 50  1  0  0  0  0
 17 51  1  0  0  0  0
 18 52  1  0  0  0  0
 18 53  1  0  0  0  0
 18 54  1  0  0  0  0
M  END
> <id>
EN300-27122438

> <smiles>
CC(C)(C)OC(=O)N1CCC/2C1C\C2=C\B3OC(C)(C)C(C)(C)O3

> <MDLNUMBER>
MFCD32859594

> <IUPAC Name>
tert-butyl (6Z)-6-[(4,4,5,5-tetramethyl-1,3,2-dioxaborolan-2-yl)methylidene]-2-azabicyclo[3.2.0]heptane-2-carboxylate

> <Purity>
95

> <URL>
https://www.enaminestore.com/catalog/EN300-27122438

> <ROCS_ShapeQuery>
_x0404_0B

> <ROCS_TanimotoCombo>
0.445 

> <ROCS_ShapeTanimoto>
0.375 

> <ROCS_ColorTanimoto>
0.071 

> <ROCS_RefTversky>
0.328 

> <ROCS_RefColorTversky>
0.078 

> <ROCS_RefTverskyCombo>
0.407 

> <ROCS_FitTversky>
1.610 

> <ROCS_FitColorTversky>
0.414 

> <ROCS_FitTverskyCombo>
2.025 

> <ROCS_ColorScore>
-5.671

> <ROCS_Overlap>
2191.606

> <ROCS_Rank>
138                 

$$$$
untitled-dbase-50047_4
  -OEChem-08222312023D

 38 41  0     0  0  0  0  0  0999 V2000
   -9.3629    8.6308  -10.5840 C   0  0  0  0  0  0  0  0  0  0  0  0
   -9.3138    3.3857   -6.9581 C   0  0  0  0  0  0  0  0  0  0  0  0
   -9.3754    4.6441   -7.5557 C   0  0  0  0  0  0  0  0  0  0  0  0
   -8.7822    2.4048   -9.0975 C   0  0  0  0  0  0  0  0  0  0  0  0
   -8.1246    4.3607  -14.0717 C   0  0  0  0  0  0  0  0  0  0  0  0
   -8.8439    3.6706   -9.6982 C   0  0  0  0  0  0  0  0  0  0  0  0
   -9.0171    2.2662   -7.7295 C   0  0  0  0  0  0  0  0  0  0  0  0
   -9.1408    4.7935   -8.9291 C   0  0  0  0  0  0  0  0  0  0  0  0
   -8.4343    5.3370  -13.1337 C   0  0  0  0  0  0  0  0  0  0  0  0
   -8.5072    6.6054  -13.6828 C   0  0  0  0  0  0  0  0  0  0  0  0
   -8.0157    5.8713  -15.7750 C   0  0  0  0  0  0  0  0  0  0  0  0
   -9.0549    7.4965  -11.3986 C   0  0  0  0  0  0  0  0  0  0  0  0
   -8.5938    3.8249  -11.1583 C   0  0  0  0  0  0  0  0  0  0  0  0
   -8.8231    7.7549  -12.8395 C   0  0  0  0  0  0  0  0  0  0  0  0
   -8.9771    6.2420  -10.8860 C   0  0  0  0  0  0  0  0  0  0  0  0
   -8.9502    0.9188   -7.0935 C   0  0  0  0  0  0  0  0  0  0  0  0
   -8.9913    5.2617  -18.3109 C   0  0  0  0  0  0  0  0  0  0  0  0
   -9.6127    9.5511   -9.9233 N   0  0  0  0  0  0  0  0  0  0  0  0
   -7.9107    4.5919  -15.3913 N   0  0  0  0  0  0  0  0  0  0  0  0
   -8.3069    6.9131  -14.9857 N   0  0  0  0  0  0  0  0  0  0  0  0
   -9.2014    6.0453   -9.5307 N   0  0  0  0  0  0  0  0  0  0  0  0
   -8.6689    5.1336  -11.7233 N   0  0  0  0  0  0  0  0  0  0  0  0
   -8.3398    2.7827  -11.7590 O   0  0  0  0  0  0  0  0  0  0  0  0
   -8.8888    8.8786  -13.3241 O   0  0  0  0  0  0  0  0  0  0  0  0
   -8.0345    7.6226  -17.6900 O   0  0  0  0  0  0  0  0  0  0  0  0
   -6.4563    5.6665  -17.8593 O   0  0  0  0  0  0  0  0  0  0  0  0
   -7.7514    6.2085  -17.4453 S   0  0  0  0  0  0  0  0  0  0  0  0
   -9.4988    3.2905   -5.8916 H   0  0  0  0  0  0  0  0  0  0  0  0
   -9.6084    5.5108   -6.9415 H   0  0  0  0  0  0  0  0  0  0  0  0
   -8.5514    1.5183   -9.6836 H   0  0  0  0  0  0  0  0  0  0  0  0
   -8.0225    3.3101  -13.8405 H   0  0  0  0  0  0  0  0  0  0  0  0
   -9.9350    0.4363   -7.1165 H   0  0  0  0  0  0  0  0  0  0  0  0
   -8.2324    0.2692   -7.6109 H   0  0  0  0  0  0  0  0  0  0  0  0
   -8.6206    0.9875   -6.0486 H   0  0  0  0  0  0  0  0  0  0  0  0
   -8.8728    5.4363  -19.3814 H   0  0  0  0  0  0  0  0  0  0  0  0
   -8.8441    4.2063  -18.0770 H   0  0  0  0  0  0  0  0  0  0  0  0
   -9.9747    5.5944  -17.9756 H   0  0  0  0  0  0  0  0  0  0  0  0
   -9.4201    6.8418   -8.9463 H   0  0  0  0  0  0  0  0  0  0  0  0
  1 12  1  0  0  0  0
  1 18  3  0  0  0  0
  2  3  1  0  0  0  0
  2  7  2  0  0  0  0
  3  8  2  0  0  0  0
  4  6  2  0  0  0  0
  4  7  1  0  0  0  0
  5  9  2  0  0  0  0
  5 19  1  0  0  0  0
  6  8  1  0  0  0  0
  6 13  1  0  0  0  0
  7 16  1  0  0  0  0
  8 21  1  0  0  0  0
  9 10  1  0  0  0  0
  9 22  1  0  0  0  0
 10 14  1  0  0  0  0
 10 20  2  0  0  0  0
 11 19  2  0  0  0  0
 11 20  1  0  0  0  0
 11 27  1  0  0  0  0
 12 14  1  0  0  0  0
 12 15  2  0  0  0  0
 13 22  1  0  0  0  0
 13 23  2  0  0  0  0
 14 24  2  0  0  0  0
 15 21  1  0  0  0  0
 15 22  1  0  0  0  0
 17 27  1  0  0  0  0
 25 27  2  0  0  0  0
 26 27  2  0  0  0  0
  2 28  1  0  0  0  0
  3 29  1  0  0  0  0
  4 30  1  0  0  0  0
  5 31  1  0  0  0  0
 16 32  1  0  0  0  0
 16 33  1  0  0  0  0
 16 34  1  0  0  0  0
 17 35  1  0  0  0  0
 17 36  1  0  0  0  0
 17 37  1  0  0  0  0
 21 38  1  0  0  0  0
M  END
> <id>
EN300-26612334

> <smiles>
CC=1C=CC=2NC3=C(C#N)C(=O)C=4N=C(N=CC4N3C(=O)C2C1)S(=O)(=O)C

> <IUPAC Name>
2-methanesulfonyl-8-methyl-6,13-dioxo-11,13-dihydro-6H-1,3,5a,11-tetraazatetraphene-12-carbonitrile

> <CAS>
301325-50-8

> <URL>
https://www.enaminestore.com/catalog/EN300-26612334

> <ROCS_ShapeQuery>
_x0404_0B

> <ROCS_TanimotoCombo>
0.445 

> <ROCS_ShapeTanimoto>
0.370 

> <ROCS_ColorTanimoto>
0.076 

> <ROCS_RefTversky>
0.332 

> <ROCS_RefColorTversky>
0.085 

> <ROCS_RefTverskyCombo>
0.417 

> <ROCS_FitTversky>
1.439 

> <ROCS_FitColorTversky>
0.405 

> <ROCS_FitTverskyCombo>
1.844 

> <ROCS_ColorScore>
-6.152

> <ROCS_Overlap>
2222.288

> <ROCS_Rank>
139                 

$$$$
untitled-dbase-179648_9
  -OEChem-08222312023D

 43 46  0     0  0  0  0  0  0999 V2000
   -8.5858    5.3403  -16.1073 B   0  0  0  0  0  0  0  0  0  0  0  0
   -9.0568    2.4128   -7.8460 C   0  0  0  0  0  0  0  0  0  0  0  0
   -9.2935    3.6106   -7.1844 C   0  0  0  0  0  0  0  0  0  0  0  0
   -8.9239    6.8668  -14.0752 C   0  0  0  0  0  0  0  0  0  0  0  0
   -8.8065    2.4168   -9.2174 C   0  0  0  0  0  0  0  0  0  0  0  0
   -9.2786    4.8099   -7.8961 C   0  0  0  0  0  0  0  0  0  0  0  0
   -9.0206    7.0802  -12.7004 C   0  0  0  0  0  0  0  0  0  0  0  0
   -8.5677    4.5206  -13.6697 C   0  0  0  0  0  0  0  0  0  0  0  0
   -8.6969    5.5855  -14.5602 C   0  0  0  0  0  0  0  0  0  0  0  0
   -8.7920    3.6222   -9.9412 C   0  0  0  0  0  0  0  0  0  0  0  0
   -8.6664    4.7286  -12.2826 C   0  0  0  0  0  0  0  0  0  0  0  0
   -9.0293    4.8295   -9.2792 C   0  0  0  0  0  0  0  0  0  0  0  0
   -8.8945    6.0162  -11.7907 C   0  0  0  0  0  0  0  0  0  0  0  0
   -8.5201    3.5500  -11.3962 C   0  0  0  0  0  0  0  0  0  0  0  0
   -7.7207    5.3278  -18.2278 C   0  0  0  0  0  0  0  0  0  0  0  0
   -9.1457    4.6799  -18.2276 C   0  0  0  0  0  0  0  0  0  0  0  0
   -6.5510    4.3247  -18.3451 C   0  0  0  0  0  0  0  0  0  0  0  0
   -7.5132    6.4192  -19.2872 C   0  0  0  0  0  0  0  0  0  0  0  0
   -9.2271    3.3107  -18.9172 C   0  0  0  0  0  0  0  0  0  0  0  0
  -10.2649    5.5716  -18.8107 C   0  0  0  0  0  0  0  0  0  0  0  0
   -8.1715    2.4781  -11.8841 O   0  0  0  0  0  0  0  0  0  0  0  0
   -7.6196    5.9510  -16.9068 O   0  0  0  0  0  0  0  0  0  0  0  0
   -9.4442    4.4920  -16.8066 O   0  0  0  0  0  0  0  0  0  0  0  0
   -9.0165    6.4157  -10.0687 S   0  0  0  0  0  0  0  0  0  0  0  0
   -9.0664    1.4757   -7.2976 H   0  0  0  0  0  0  0  0  0  0  0  0
   -9.4914    3.6142   -6.1167 H   0  0  0  0  0  0  0  0  0  0  0  0
   -9.0321    7.7205  -14.7414 H   0  0  0  0  0  0  0  0  0  0  0  0
   -8.6197    1.4629   -9.7049 H   0  0  0  0  0  0  0  0  0  0  0  0
   -9.4664    5.7337   -7.3517 H   0  0  0  0  0  0  0  0  0  0  0  0
   -9.1987    8.0948  -12.3483 H   0  0  0  0  0  0  0  0  0  0  0  0
   -8.3838    3.5182  -14.0551 H   0  0  0  0  0  0  0  0  0  0  0  0
   -5.6168    4.8722  -18.3358 H   0  0  0  0  0  0  0  0  0  0  0  0
   -6.6503    3.7768  -19.2737 H   0  0  0  0  0  0  0  0  0  0  0  0
   -6.5888    3.6418  -17.5057 H   0  0  0  0  0  0  0  0  0  0  0  0
   -6.5019    6.8080  -19.2119 H   0  0  0  0  0  0  0  0  0  0  0  0
   -8.2243    7.2231  -19.1215 H   0  0  0  0  0  0  0  0  0  0  0  0
   -7.6669    5.9966  -20.2759 H   0  0  0  0  0  0  0  0  0  0  0  0
  -10.2474    2.9416  -18.8680 H   0  0  0  0  0  0  0  0  0  0  0  0
   -8.5642    2.6129  -18.4140 H   0  0  0  0  0  0  0  0  0  0  0  0
   -8.9273    3.4113  -19.9563 H   0  0  0  0  0  0  0  0  0  0  0  0
  -11.2030    5.0330  -18.7639 H   0  0  0  0  0  0  0  0  0  0  0  0
  -10.0245    5.8087  -19.8395 H   0  0  0  0  0  0  0  0  0  0  0  0
  -10.3297    6.4807  -18.2260 H   0  0  0  0  0  0  0  0  0  0  0  0
  1  9  1  0  0  0  0
  1 22  1  0  0  0  0
  1 23  1  0  0  0  0
  2  3  2  0  0  0  0
  2  5  1  0  0  0  0
  3  6  1  0  0  0  0
  4  7  1  0  0  0  0
  4  9  2  0  0  0  0
  5 10  2  0  0  0  0
  6 12  2  0  0  0  0
  7 13  2  0  0  0  0
  8  9  1  0  0  0  0
  8 11  2  0  0  0  0
 10 12  1  0  0  0  0
 10 14  1  0  0  0  0
 11 13  1  0  0  0  0
 11 14  1  0  0  0  0
 12 24  1  0  0  0  0
 13 24  1  0  0  0  0
 14 21  2  0  0  0  0
 15 16  1  0  0  0  0
 15 17  1  0  0  0  0
 15 18  1  0  0  0  0
 15 22  1  0  0  0  0
 16 19  1  0  0  0  0
 16 20  1  0  0  0  0
 16 23  1  0  0  0  0
  2 25  1  0  0  0  0
  3 26  1  0  0  0  0
  4 27  1  0  0  0  0
  5 28  1  0  0  0  0
  6 29  1  0  0  0  0
  7 30  1  0  0  0  0
  8 31  1  0  0  0  0
 17 32  1  0  0  0  0
 17 33  1  0  0  0  0
 17 34  1  0  0  0  0
 18 35  1  0  0  0  0
 18 36  1  0  0  0  0
 18 37  1  0  0  0  0
 19 38  1  0  0  0  0
 19 39  1  0  0  0  0
 19 40  1  0  0  0  0
 20 41  1  0  0  0  0
 20 42  1  0  0  0  0
 20 43  1  0  0  0  0
M  END
> <id>
EN300-18911545

> <smiles>
CC1(C)OB(OC1(C)C)C=2C=CC=3SC=4C=CC=CC4C(=O)C3C2

> <MDLNUMBER>
MFCD18374014

> <IUPAC Name>
2-(tetramethyl-1,3,2-dioxaborolan-2-yl)-9H-thioxanthen-9-one

> <CAS>
1609048-97-6

> <URL>
https://www.enaminestore.com/catalog/EN300-18911545

> <ROCS_ShapeQuery>
_x0404_0B

> <ROCS_TanimotoCombo>
0.445 

> <ROCS_ShapeTanimoto>
0.397 

> <ROCS_ColorTanimoto>
0.048 

> <ROCS_RefTversky>
0.343 

> <ROCS_RefColorTversky>
0.053 

> <ROCS_RefTverskyCombo>
0.396 

> <ROCS_FitTversky>
1.661 

> <ROCS_FitColorTversky>
0.365 

> <ROCS_FitTverskyCombo>
2.027 

> <ROCS_ColorScore>
-3.814

> <ROCS_Overlap>
2288.872

> <ROCS_Rank>
140                 

$$$$
untitled-dbase-54264_821
  -OEChem-08222312023D

 56 58  0     0  0  0  0  0  0999 V2000
   -8.6188    5.7690  -15.7324 B   0  0  0  0  0  0  0  0  0  0  0  0
   -8.5295    8.0834  -14.7444 C   0  0  0  0  0  0  0  0  0  0  0  0
   -8.7182    8.6094  -12.5134 C   0  0  0  0  0  0  0  0  0  0  0  0
   -8.6490    6.7286  -14.4905 C   0  0  0  0  0  0  0  0  0  0  0  0
   -8.8330    7.2749  -12.1335 C   0  0  0  0  0  0  0  0  0  0  0  0
   -8.7880    6.3313  -13.1642 C   0  0  0  0  0  0  0  0  0  0  0  0
   -8.9946    4.9417   -9.1287 C   0  0  0  0  0  0  0  0  0  0  0  0
   -9.0646    6.9163  -10.6891 C   0  0  0  0  0  0  0  0  0  0  0  0
   -7.3666    5.0880  -10.9861 C   0  0  0  0  0  0  0  0  0  0  0  0
   -7.8152    4.4054  -12.2781 C   0  0  0  0  0  0  0  0  0  0  0  0
   -7.8054    4.5638  -17.5018 C   0  0  0  0  0  0  0  0  0  0  0  0
   -9.3490    4.3414  -17.3676 C   0  0  0  0  0  0  0  0  0  0  0  0
   -6.9343    3.3831  -17.0167 C   0  0  0  0  0  0  0  0  0  0  0  0
   -7.3335    4.9494  -18.9108 C   0  0  0  0  0  0  0  0  0  0  0  0
   -9.7863    2.8699  -17.3627 C   0  0  0  0  0  0  0  0  0  0  0  0
  -10.2062    5.0872  -18.4150 C   0  0  0  0  0  0  0  0  0  0  0  0
  -10.8332    3.0783   -7.9741 C   0  0  0  0  0  0  0  0  0  0  0  0
   -9.1005    1.3334   -8.4861 C   0  0  0  0  0  0  0  0  0  0  0  0
   -8.5636    3.1993   -6.8929 C   0  0  0  0  0  0  0  0  0  0  0  0
   -9.3402    2.8031   -8.1478 C   0  0  0  0  0  0  0  0  0  0  0  0
   -8.5582    9.0369  -13.7881 N   0  0  0  0  0  0  0  0  0  0  0  0
   -8.5045    5.6283  -10.2462 N   0  0  0  0  0  0  0  0  0  0  0  0
   -9.4977    5.4845   -8.1468 O   0  0  0  0  0  0  0  0  0  0  0  0
   -7.5353    5.6910  -16.6073 O   0  0  0  0  0  0  0  0  0  0  0  0
   -9.6730    4.9166  -16.0608 O   0  0  0  0  0  0  0  0  0  0  0  0
   -8.9580    4.9978  -12.9102 O   0  0  0  0  0  0  0  0  0  0  0  0
   -8.8579    3.5833   -9.2477 O   0  0  0  0  0  0  0  0  0  0  0  0
   -8.3992    8.4818  -15.7480 H   0  0  0  0  0  0  0  0  0  0  0  0
   -8.7447    9.4068  -11.7754 H   0  0  0  0  0  0  0  0  0  0  0  0
   -8.6451    7.7177  -10.0389 H   0  0  0  0  0  0  0  0  0  0  0  0
  -10.1546    6.9342  -10.4643 H   0  0  0  0  0  0  0  0  0  0  0  0
   -6.8312    4.3618  -10.3632 H   0  0  0  0  0  0  0  0  0  0  0  0
   -6.6806    5.9171  -11.2004 H   0  0  0  0  0  0  0  0  0  0  0  0
   -6.9894    4.4824  -13.0133 H   0  0  0  0  0  0  0  0  0  0  0  0
   -7.9572    3.3097  -12.1329 H   0  0  0  0  0  0  0  0  0  0  0  0
   -5.8907    3.6379  -17.1522 H   0  0  0  0  0  0  0  0  0  0  0  0
   -7.1796    2.5037  -17.5987 H   0  0  0  0  0  0  0  0  0  0  0  0
   -7.1390    3.2033  -15.9687 H   0  0  0  0  0  0  0  0  0  0  0  0
   -6.2556    5.0821  -18.9070 H   0  0  0  0  0  0  0  0  0  0  0  0
   -7.8123    5.8770  -19.2106 H   0  0  0  0  0  0  0  0  0  0  0  0
   -7.5998    4.1612  -19.6090 H   0  0  0  0  0  0  0  0  0  0  0  0
  -10.8667    2.8145  -17.2665 H   0  0  0  0  0  0  0  0  0  0  0  0
   -9.3208    2.3576  -16.5258 H   0  0  0  0  0  0  0  0  0  0  0  0
   -9.4801    2.3990  -18.2924 H   0  0  0  0  0  0  0  0  0  0  0  0
  -11.2509    4.8671  -18.2344 H   0  0  0  0  0  0  0  0  0  0  0  0
   -9.9222    4.7512  -19.4043 H   0  0  0  0  0  0  0  0  0  0  0  0
  -10.0296    6.1512  -18.3196 H   0  0  0  0  0  0  0  0  0  0  0  0
  -11.0094    4.1323   -7.7312 H   0  0  0  0  0  0  0  0  0  0  0  0
  -11.3969    2.8312   -8.8797 H   0  0  0  0  0  0  0  0  0  0  0  0
  -11.2438    2.4963   -7.1412 H   0  0  0  0  0  0  0  0  0  0  0  0
   -8.0306    1.1314   -8.6116 H   0  0  0  0  0  0  0  0  0  0  0  0
   -9.5780    1.0687   -9.4364 H   0  0  0  0  0  0  0  0  0  0  0  0
   -9.4893    0.6706   -7.7062 H   0  0  0  0  0  0  0  0  0  0  0  0
   -7.4927    3.0020   -7.0171 H   0  0  0  0  0  0  0  0  0  0  0  0
   -8.6943    4.2601   -6.6557 H   0  0  0  0  0  0  0  0  0  0  0  0
   -8.8891    2.6069   -6.0300 H   0  0  0  0  0  0  0  0  0  0  0  0
  1  4  1  0  0  0  0
  1 24  1  0  0  0  0
  1 25  1  0  0  0  0
  2  4  1  0  0  0  0
  2 21  2  0  0  0  0
  3  5  2  0  0  0  0
  3 21  1  0  0  0  0
  4  6  2  0  0  0  0
  5  6  1  0  0  0  0
  5  8  1  0  0  0  0
  6 26  1  0  0  0  0
  7 22  1  0  0  0  0
  7 23  2  0  0  0  0
  7 27  1  0  0  0  0
  8 22  1  0  0  0  0
  9 10  1  0  0  0  0
  9 22  1  0  0  0  0
 10 26  1  0  0  0  0
 11 12  1  0  0  0  0
 11 13  1  0  0  0  0
 11 14  1  0  0  0  0
 11 24  1  0  0  0  0
 12 15  1  0  0  0  0
 12 16  1  0  0  0  0
 12 25  1  0  0  0  0
 17 20  1  0  0  0  0
 18 20  1  0  0  0  0
 19 20  1  0  0  0  0
 20 27  1  0  0  0  0
  2 28  1  0  0  0  0
  3 29  1  0  0  0  0
  8 30  1  0  0  0  0
  8 31  1  0  0  0  0
  9 32  1  0  0  0  0
  9 33  1  0  0  0  0
 10 34  1  0  0  0  0
 10 35  1  0  0  0  0
 13 36  1  0  0  0  0
 13 37  1  0  0  0  0
 13 38  1  0  0  0  0
 14 39  1  0  0  0  0
 14 40  1  0  0  0  0
 14 41  1  0  0  0  0
 15 42  1  0  0  0  0
 15 43  1  0  0  0  0
 15 44  1  0  0  0  0
 16 45  1  0  0  0  0
 16 46  1  0  0  0  0
 16 47  1  0  0  0  0
 17 48  1  0  0  0  0
 17 49  1  0  0  0  0
 17 50  1  0  0  0  0
 18 51  1  0  0  0  0
 18 52  1  0  0  0  0
 18 53  1  0  0  0  0
 19 54  1  0  0  0  0
 19 55  1  0  0  0  0
 19 56  1  0  0  0  0
M  END
> <id>
EN300-37108846

> <smiles>
CC(C)(C)OC(=O)N1CCOC=2C(=CN=CC2C1)B3OC(C)(C)C(C)(C)O3

> <IUPAC Name>
tert-butyl 9-(4,4,5,5-tetramethyl-1,3,2-dioxaborolan-2-yl)-2H,3H,4H,5H-pyrido[3,4-f][1,4]oxazepine-4-carboxylate

> <URL>
https://www.enaminestore.com/catalog/EN300-37108846

> <ROCS_ShapeQuery>
_x0404_0B

> <ROCS_TanimotoCombo>
0.445 

> <ROCS_ShapeTanimoto>
0.395 

> <ROCS_ColorTanimoto>
0.050 

> <ROCS_RefTversky>
0.347 

> <ROCS_RefColorTversky>
0.056 

> <ROCS_RefTverskyCombo>
0.403 

> <ROCS_FitTversky>
1.541 

> <ROCS_FitColorTversky>
0.328 

> <ROCS_FitTverskyCombo>
1.869 

> <ROCS_ColorScore>
-4.042

> <ROCS_Overlap>
2319.443

> <ROCS_Rank>
141                 

$$$$
untitled-dbase-81255_2
  -OEChem-08222312023D

 40 43  0     0  0  0  0  0  0999 V2000
   -9.4940    5.2136  -15.4625 C   0  0  0  0  0  0  0  0  0  0  0  0
   -7.2794    6.1238  -15.7855 C   0  0  0  0  0  0  0  0  0  0  0  0
   -9.4476    4.6485  -16.7369 C   0  0  0  0  0  0  0  0  0  0  0  0
   -7.2330    5.5586  -17.0599 C   0  0  0  0  0  0  0  0  0  0  0  0
   -8.4099    5.9513  -14.9868 C   0  0  0  0  0  0  0  0  0  0  0  0
   -8.3171    4.8209  -17.5356 C   0  0  0  0  0  0  0  0  0  0  0  0
   -8.8509    5.4651  -10.3487 C   0  0  0  0  0  0  0  0  0  0  0  0
   -8.9102    4.2871  -11.0419 C   0  0  0  0  0  0  0  0  0  0  0  0
   -8.6120    5.7876  -12.5448 C   0  0  0  0  0  0  0  0  0  0  0  0
   -8.9919    5.5614   -8.9267 C   0  0  0  0  0  0  0  0  0  0  0  0
   -9.2437    3.0173   -9.0069 C   0  0  0  0  0  0  0  0  0  0  0  0
   -7.8704    8.4999  -12.3197 C   0  0  0  0  0  0  0  0  0  0  0  0
   -8.5238    7.8451  -11.1149 C   0  0  0  0  0  0  0  0  0  0  0  0
   -8.5075    7.9970  -13.6137 C   0  0  0  0  0  0  0  0  0  0  0  0
   -9.1589    1.8423  -11.2071 C   0  0  0  0  0  0  0  0  0  0  0  0
   -9.3271    4.2346   -6.8780 C   0  0  0  0  0  0  0  0  0  0  0  0
   -8.7688    4.4822  -12.3870 N   0  0  0  0  0  0  0  0  0  0  0  0
   -8.6486    6.4151  -11.3101 N   0  0  0  0  0  0  0  0  0  0  0  0
   -8.4570    6.5260  -13.6909 N   0  0  0  0  0  0  0  0  0  0  0  0
   -9.1026    3.0645  -10.4141 N   0  0  0  0  0  0  0  0  0  0  0  0
   -9.1771    4.2856   -8.3288 N   0  0  0  0  0  0  0  0  0  0  0  0
   -8.9613    6.6232   -8.3102 O   0  0  0  0  0  0  0  0  0  0  0  0
   -9.4157    1.9579   -8.3934 O   0  0  0  0  0  0  0  0  0  0  0  0
   -8.2726    4.2782  -18.7594 F   0  0  0  0  0  0  0  0  0  0  0  0
  -10.3797    5.0727  -14.8484 H   0  0  0  0  0  0  0  0  0  0  0  0
   -6.4290    6.6969  -15.4250 H   0  0  0  0  0  0  0  0  0  0  0  0
  -10.2913    4.0739  -17.1075 H   0  0  0  0  0  0  0  0  0  0  0  0
   -6.3532    5.6928  -17.6823 H   0  0  0  0  0  0  0  0  0  0  0  0
   -7.9626    9.5893  -12.2500 H   0  0  0  0  0  0  0  0  0  0  0  0
   -6.7971    8.2700  -12.3324 H   0  0  0  0  0  0  0  0  0  0  0  0
   -7.9233    8.0261  -10.2188 H   0  0  0  0  0  0  0  0  0  0  0  0
   -9.5360    8.2321  -10.9546 H   0  0  0  0  0  0  0  0  0  0  0  0
   -9.5519    8.3292  -13.6747 H   0  0  0  0  0  0  0  0  0  0  0  0
   -7.9712    8.4403  -14.4624 H   0  0  0  0  0  0  0  0  0  0  0  0
   -8.1468    1.4235  -11.3085 H   0  0  0  0  0  0  0  0  0  0  0  0
   -9.8100    1.1104  -10.7068 H   0  0  0  0  0  0  0  0  0  0  0  0
   -9.5626    2.0708  -12.2045 H   0  0  0  0  0  0  0  0  0  0  0  0
  -10.3917    4.3228   -6.6155 H   0  0  0  0  0  0  0  0  0  0  0  0
   -8.9350    3.2780   -6.5023 H   0  0  0  0  0  0  0  0  0  0  0  0
   -8.7672    5.0646   -6.4222 H   0  0  0  0  0  0  0  0  0  0  0  0
  1  3  1  0  0  0  0
  1  5  2  0  0  0  0
  2  4  2  0  0  0  0
  2  5  1  0  0  0  0
  3  6  2  0  0  0  0
  4  6  1  0  0  0  0
  5 19  1  0  0  0  0
  6 24  1  0  0  0  0
  7  8  2  0  0  0  0
  7 10  1  0  0  0  0
  7 18  1  0  0  0  0
  8 17  1  0  0  0  0
  8 20  1  0  0  0  0
  9 17  2  0  0  0  0
  9 18  1  0  0  0  0
  9 19  1  0  0  0  0
 10 21  1  0  0  0  0
 10 22  2  0  0  0  0
 11 20  1  0  0  0  0
 11 21  1  0  0  0  0
 11 23  2  0  0  0  0
 12 13  1  0  0  0  0
 12 14  1  0  0  0  0
 13 18  1  0  0  0  0
 14 19  1  0  0  0  0
 15 20  1  0  0  0  0
 16 21  1  0  0  0  0
  1 25  1  0  0  0  0
  2 26  1  0  0  0  0
  3 27  1  0  0  0  0
  4 28  1  0  0  0  0
 12 29  1  0  0  0  0
 12 30  1  0  0  0  0
 13 31  1  0  0  0  0
 13 32  1  0  0  0  0
 14 33  1  0  0  0  0
 14 34  1  0  0  0  0
 15 35  1  0  0  0  0
 15 36  1  0  0  0  0
 15 37  1  0  0  0  0
 16 38  1  0  0  0  0
 16 39  1  0  0  0  0
 16 40  1  0  0  0  0
M  END
> <id>
EN300-26867408

> <smiles>
CN1C(=O)N(C)C=2N=C3N(CCCN3C2C1=O)C=4C=CC(F)=CC4

> <MDLNUMBER>
MFCD06613012

> <IUPAC Name>
9-(4-fluorophenyl)-1,3-dimethyl-1H,2H,3H,4H,6H,7H,8H,9H-pyrimido[1,2-g]purine-2,4-dione

> <CAS>
838896-62-1

> <URL>
https://www.enaminestore.com/catalog/EN300-26867408

> <ROCS_ShapeQuery>
_x0404_0B

> <ROCS_TanimotoCombo>
0.445 

> <ROCS_ShapeTanimoto>
0.386 

> <ROCS_ColorTanimoto>
0.059 

> <ROCS_RefTversky>
0.338 

> <ROCS_RefColorTversky>
0.065 

> <ROCS_RefTverskyCombo>
0.403 

> <ROCS_FitTversky>
1.576 

> <ROCS_FitColorTversky>
0.410 

> <ROCS_FitTverskyCombo>
1.987 

> <ROCS_ColorScore>
-4.685

> <ROCS_Overlap>
2259.120

> <ROCS_Rank>
142                 

$$$$
untitled-dbase-91466_910
  -OEChem-08222312023D

 50 52  0     0  0  0  0  0  0999 V2000
   -8.1424    4.5026  -18.4852 C   0  0  0  0  0  0  0  0  0  0  0  0
   -9.3841    3.9994  -18.1763 C   0  0  0  0  0  0  0  0  0  0  0  0
   -8.7993    5.1497  -16.4836 C   0  0  0  0  0  0  0  0  0  0  0  0
   -8.5973    5.1703   -8.7555 C   0  0  0  0  0  0  0  0  0  0  0  0
   -9.0451    6.6304  -12.0245 C   0  0  0  0  0  0  0  0  0  0  0  0
   -9.6079    4.1681  -12.0991 C   0  0  0  0  0  0  0  0  0  0  0  0
  -10.0853    5.6194  -14.1666 C   0  0  0  0  0  0  0  0  0  0  0  0
   -8.0069    5.1368  -13.9063 C   0  0  0  0  0  0  0  0  0  0  0  0
   -8.0772    6.3490  -10.8771 C   0  0  0  0  0  0  0  0  0  0  0  0
   -8.6199    3.9300  -10.9597 C   0  0  0  0  0  0  0  0  0  0  0  0
   -8.8083    5.8595  -15.0436 C   0  0  0  0  0  0  0  0  0  0  0  0
   -9.1845    5.3916  -12.9230 C   0  0  0  0  0  0  0  0  0  0  0  0
  -10.7020    3.7758   -8.0390 C   0  0  0  0  0  0  0  0  0  0  0  0
   -9.1849    1.8452   -7.5095 C   0  0  0  0  0  0  0  0  0  0  0  0
   -9.2696    3.8279   -5.9701 C   0  0  0  0  0  0  0  0  0  0  0  0
   -6.5478    5.9706  -17.2326 C   0  0  0  0  0  0  0  0  0  0  0  0
   -9.3682    3.3587   -7.4209 C   0  0  0  0  0  0  0  0  0  0  0  0
   -9.7875    4.4061  -16.9291 N   0  0  0  0  0  0  0  0  0  0  0  0
   -7.7809    5.2378  -17.3915 N   0  0  0  0  0  0  0  0  0  0  0  0
   -8.4597    5.1406  -10.1466 N   0  0  0  0  0  0  0  0  0  0  0  0
   -8.9396    6.1623   -8.1143 O   0  0  0  0  0  0  0  0  0  0  0  0
   -8.4731    7.2663  -15.1788 O   0  0  0  0  0  0  0  0  0  0  0  0
   -8.3092    3.9662   -8.1697 O   0  0  0  0  0  0  0  0  0  0  0  0
  -10.4281    2.8979  -19.2878 Br  0  0  0  0  0  0  0  0  0  0  0  0
   -7.5064    4.4086  -19.3548 H   0  0  0  0  0  0  0  0  0  0  0  0
  -10.0133    6.9347  -11.6127 H   0  0  0  0  0  0  0  0  0  0  0  0
   -8.6716    7.4770  -12.6143 H   0  0  0  0  0  0  0  0  0  0  0  0
   -9.6476    3.2786  -12.7413 H   0  0  0  0  0  0  0  0  0  0  0  0
  -10.6141    4.3031  -11.6837 H   0  0  0  0  0  0  0  0  0  0  0  0
  -10.7668    6.4757  -14.1079 H   0  0  0  0  0  0  0  0  0  0  0  0
  -10.6815    4.7463  -14.4646 H   0  0  0  0  0  0  0  0  0  0  0  0
   -7.7984    4.0779  -14.1024 H   0  0  0  0  0  0  0  0  0  0  0  0
   -7.0606    5.6149  -13.6331 H   0  0  0  0  0  0  0  0  0  0  0  0
   -7.0586    6.2760  -11.2702 H   0  0  0  0  0  0  0  0  0  0  0  0
   -8.0857    7.1737  -10.1539 H   0  0  0  0  0  0  0  0  0  0  0  0
   -8.9821    3.1420  -10.2910 H   0  0  0  0  0  0  0  0  0  0  0  0
   -7.6571    3.6055  -11.3629 H   0  0  0  0  0  0  0  0  0  0  0  0
  -10.8374    4.8615   -7.9773 H   0  0  0  0  0  0  0  0  0  0  0  0
  -10.7710    3.4758   -9.0897 H   0  0  0  0  0  0  0  0  0  0  0  0
  -11.5418    3.3282   -7.4954 H   0  0  0  0  0  0  0  0  0  0  0  0
   -8.2292    1.5414   -7.0673 H   0  0  0  0  0  0  0  0  0  0  0  0
   -9.1600    1.5155   -8.5545 H   0  0  0  0  0  0  0  0  0  0  0  0
   -9.9902    1.3099   -6.9962 H   0  0  0  0  0  0  0  0  0  0  0  0
   -8.3130    3.5288   -5.5266 H   0  0  0  0  0  0  0  0  0  0  0  0
   -9.3621    4.9159   -5.8909 H   0  0  0  0  0  0  0  0  0  0  0  0
  -10.0523    3.3663   -5.3572 H   0  0  0  0  0  0  0  0  0  0  0  0
   -6.7057    6.9831  -17.6134 H   0  0  0  0  0  0  0  0  0  0  0  0
   -6.2746    5.9986  -16.1741 H   0  0  0  0  0  0  0  0  0  0  0  0
   -5.7545    5.4692  -17.7940 H   0  0  0  0  0  0  0  0  0  0  0  0
   -9.1515    7.6390  -15.7546 H   0  0  0  0  0  0  0  0  0  0  0  0
  1  2  2  0  0  0  0
  1 19  1  0  0  0  0
  2 18  1  0  0  0  0
  2 24  1  0  0  0  0
  3 11  1  0  0  0  0
  3 18  2  0  0  0  0
  3 19  1  0  0  0  0
  4 20  1  0  0  0  0
  4 21  2  0  0  0  0
  4 23  1  0  0  0  0
  5  9  1  0  0  0  0
  5 12  1  0  0  0  0
  6 10  1  0  0  0  0
  6 12  1  0  0  0  0
  7 11  1  0  0  0  0
  7 12  1  0  0  0  0
  8 11  1  0  0  0  0
  8 12  1  0  0  0  0
  9 20  1  0  0  0  0
 10 20  1  0  0  0  0
 11 22  1  0  0  0  0
 13 17  1  0  0  0  0
 14 17  1  0  0  0  0
 15 17  1  0  0  0  0
 16 19  1  0  0  0  0
 17 23  1  0  0  0  0
  1 25  1  0  0  0  0
  5 26  1  0  0  0  0
  5 27  1  0  0  0  0
  6 28  1  0  0  0  0
  6 29  1  0  0  0  0
  7 30  1  0  0  0  0
  7 31  1  0  0  0  0
  8 32  1  0  0  0  0
  8 33  1  0  0  0  0
  9 34  1  0  0  0  0
  9 35  1  0  0  0  0
 10 36  1  0  0  0  0
 10 37  1  0  0  0  0
 13 38  1  0  0  0  0
 13 39  1  0  0  0  0
 13 40  1  0  0  0  0
 14 41  1  0  0  0  0
 14 42  1  0  0  0  0
 14 43  1  0  0  0  0
 15 44  1  0  0  0  0
 15 45  1  0  0  0  0
 15 46  1  0  0  0  0
 16 47  1  0  0  0  0
 16 48  1  0  0  0  0
 16 49  1  0  0  0  0
 22 50  1  0  0  0  0
M  END
> <id>
EN300-7428195

> <smiles>
CN1C=C(Br)N=C1C2(O)CC3(C2)CCN(CC3)C(=O)OC(C)(C)C

> <IUPAC Name>
tert-butyl 2-(4-bromo-1-methyl-1H-imidazol-2-yl)-2-hydroxy-7-azaspiro[3.5]nonane-7-carboxylate

> <CAS>
2309466-07-5

> <URL>
https://www.enaminestore.com/catalog/EN300-7428195

> <ROCS_ShapeQuery>
_x0404_0B

> <ROCS_TanimotoCombo>
0.445 

> <ROCS_ShapeTanimoto>
0.381 

> <ROCS_ColorTanimoto>
0.064 

> <ROCS_RefTversky>
0.332 

> <ROCS_RefColorTversky>
0.071 

> <ROCS_RefTverskyCombo>
0.403 

> <ROCS_FitTversky>
1.637 

> <ROCS_FitColorTversky>
0.386 

> <ROCS_FitTverskyCombo>
2.023 

> <ROCS_ColorScore>
-5.124

> <ROCS_Overlap>
2217.914

> <ROCS_Rank>
143                 

$$$$
untitled-dbase-155103_0
  -OEChem-08222312023D

 56 58  0     0  0  0  0  0  0999 V2000
   -8.9673    3.8906   -9.0807 B   0  0  0  0  0  0  0  0  0  0  0  0
   -8.7897    6.9698  -11.2373 C   0  0  0  0  0  0  0  0  0  0  0  0
   -8.8509    6.0907  -10.1665 C   0  0  0  0  0  0  0  0  0  0  0  0
   -8.7271    6.4839  -12.5485 C   0  0  0  0  0  0  0  0  0  0  0  0
   -8.8539    4.7227  -10.4077 C   0  0  0  0  0  0  0  0  0  0  0  0
   -8.7787    4.2211  -11.7207 C   0  0  0  0  0  0  0  0  0  0  0  0
   -8.7118    5.1050  -12.8237 C   0  0  0  0  0  0  0  0  0  0  0  0
   -8.4413    5.3832  -15.3146 C   0  0  0  0  0  0  0  0  0  0  0  0
   -8.8200    2.7254  -11.8912 C   0  0  0  0  0  0  0  0  0  0  0  0
   -8.2522    2.3104  -13.2321 C   0  0  0  0  0  0  0  0  0  0  0  0
   -8.8929    3.1328  -14.3345 C   0  0  0  0  0  0  0  0  0  0  0  0
   -8.9335    3.3864   -6.8470 C   0  0  0  0  0  0  0  0  0  0  0  0
   -9.3127    2.1144   -7.6767 C   0  0  0  0  0  0  0  0  0  0  0  0
  -10.1141    4.0559   -6.1080 C   0  0  0  0  0  0  0  0  0  0  0  0
   -7.8015    3.1753   -5.8318 C   0  0  0  0  0  0  0  0  0  0  0  0
  -10.5735    1.3852   -7.1915 C   0  0  0  0  0  0  0  0  0  0  0  0
   -8.1837    1.0684   -7.8148 C   0  0  0  0  0  0  0  0  0  0  0  0
   -6.8683    6.0218  -17.6292 C   0  0  0  0  0  0  0  0  0  0  0  0
   -8.3168    4.3673  -18.8431 C   0  0  0  0  0  0  0  0  0  0  0  0
   -9.3434    6.4277  -17.8385 C   0  0  0  0  0  0  0  0  0  0  0  0
   -8.2492    5.3710  -17.6940 C   0  0  0  0  0  0  0  0  0  0  0  0
   -8.6603    4.5802  -14.1728 N   0  0  0  0  0  0  0  0  0  0  0  0
   -8.2361    6.5938  -15.3264 O   0  0  0  0  0  0  0  0  0  0  0  0
   -8.4665    4.3371   -7.8578 O   0  0  0  0  0  0  0  0  0  0  0  0
   -9.5779    2.6381   -9.0180 O   0  0  0  0  0  0  0  0  0  0  0  0
   -8.4705    4.6487  -16.4764 O   0  0  0  0  0  0  0  0  0  0  0  0
   -8.8026    8.0418  -11.0607 H   0  0  0  0  0  0  0  0  0  0  0  0
   -8.9071    6.5136   -9.1648 H   0  0  0  0  0  0  0  0  0  0  0  0
   -8.7247    7.2365  -13.3276 H   0  0  0  0  0  0  0  0  0  0  0  0
   -8.2336    2.2103  -11.1223 H   0  0  0  0  0  0  0  0  0  0  0  0
   -9.8615    2.3886  -11.8113 H   0  0  0  0  0  0  0  0  0  0  0  0
   -7.1642    2.4537  -13.2501 H   0  0  0  0  0  0  0  0  0  0  0  0
   -8.4370    1.2434  -13.4006 H   0  0  0  0  0  0  0  0  0  0  0  0
   -8.4889    2.7850  -15.2908 H   0  0  0  0  0  0  0  0  0  0  0  0
   -9.9787    2.9793  -14.3655 H   0  0  0  0  0  0  0  0  0  0  0  0
   -9.7463    4.9197   -5.5687 H   0  0  0  0  0  0  0  0  0  0  0  0
  -10.5449    3.3429   -5.4163 H   0  0  0  0  0  0  0  0  0  0  0  0
  -10.8558    4.3612   -6.8355 H   0  0  0  0  0  0  0  0  0  0  0  0
   -7.6091    4.1062   -5.3066 H   0  0  0  0  0  0  0  0  0  0  0  0
   -6.9025    2.8606   -6.3537 H   0  0  0  0  0  0  0  0  0  0  0  0
   -8.0941    2.4100   -5.1187 H   0  0  0  0  0  0  0  0  0  0  0  0
  -10.7568    0.5212   -7.8235 H   0  0  0  0  0  0  0  0  0  0  0  0
  -11.4233    2.0596   -7.2435 H   0  0  0  0  0  0  0  0  0  0  0  0
  -10.4302    1.0602   -6.1651 H   0  0  0  0  0  0  0  0  0  0  0  0
   -8.5475    0.2348   -8.4022 H   0  0  0  0  0  0  0  0  0  0  0  0
   -7.8971    0.7291   -6.8274 H   0  0  0  0  0  0  0  0  0  0  0  0
   -7.3373    1.5288   -8.3089 H   0  0  0  0  0  0  0  0  0  0  0  0
   -6.8157    6.7430  -16.8056 H   0  0  0  0  0  0  0  0  0  0  0  0
   -6.0776    5.2774  -17.4905 H   0  0  0  0  0  0  0  0  0  0  0  0
   -6.6575    6.5839  -18.5461 H   0  0  0  0  0  0  0  0  0  0  0  0
   -9.3059    3.8979  -18.8933 H   0  0  0  0  0  0  0  0  0  0  0  0
   -7.5967    3.5546  -18.6943 H   0  0  0  0  0  0  0  0  0  0  0  0
   -8.1092    4.8424  -19.8073 H   0  0  0  0  0  0  0  0  0  0  0  0
  -10.3340    5.9611  -17.8851 H   0  0  0  0  0  0  0  0  0  0  0  0
   -9.3336    7.1353  -17.0031 H   0  0  0  0  0  0  0  0  0  0  0  0
   -9.2220    6.9892  -18.7719 H   0  0  0  0  0  0  0  0  0  0  0  0
  1  5  1  0  0  0  0
  1 24  1  0  0  0  0
  1 25  1  0  0  0  0
  2  3  2  0  0  0  0
  2  4  1  0  0  0  0
  3  5  1  0  0  0  0
  4  7  2  0  0  0  0
  5  6  2  0  0  0  0
  6  7  1  0  0  0  0
  6  9  1  0  0  0  0
  7 22  1  0  0  0  0
  8 22  1  0  0  0  0
  8 23  2  0  0  0  0
  8 26  1  0  0  0  0
  9 10  1  0  0  0  0
 10 11  1  0  0  0  0
 11 22  1  0  0  0  0
 12 13  1  0  0  0  0
 12 14  1  0  0  0  0
 12 15  1  0  0  0  0
 12 24  1  0  0  0  0
 13 16  1  0  0  0  0
 13 17  1  0  0  0  0
 13 25  1  0  0  0  0
 18 21  1  0  0  0  0
 19 21  1  0  0  0  0
 20 21  1  0  0  0  0
 21 26  1  0  0  0  0
  2 27  1  0  0  0  0
  3 28  1  0  0  0  0
  4 29  1  0  0  0  0
  9 30  1  0  0  0  0
  9 31  1  0  0  0  0
 10 32  1  0  0  0  0
 10 33  1  0  0  0  0
 11 34  1  0  0  0  0
 11 35  1  0  0  0  0
 14 36  1  0  0  0  0
 14 37  1  0  0  0  0
 14 38  1  0  0  0  0
 15 39  1  0  0  0  0
 15 40  1  0  0  0  0
 15 41  1  0  0  0  0
 16 42  1  0  0  0  0
 16 43  1  0  0  0  0
 16 44  1  0  0  0  0
 17 45  1  0  0  0  0
 17 46  1  0  0  0  0
 17 47  1  0  0  0  0
 18 48  1  0  0  0  0
 18 49  1  0  0  0  0
 18 50  1  0  0  0  0
 19 51  1  0  0  0  0
 19 52  1  0  0  0  0
 19 53  1  0  0  0  0
 20 54  1  0  0  0  0
 20 55  1  0  0  0  0
 20 56  1  0  0  0  0
M  END
> <id>
EN300-4691230

> <smiles>
CC(C)(C)OC(=O)N1CCCC=2C(=CC=CC12)B3OC(C)(C)C(C)(C)O3

> <MDLNUMBER>
MFCD28396985

> <IUPAC Name>
tert-butyl 5-(tetramethyl-1,3,2-dioxaborolan-2-yl)-1,2,3,4-tetrahydroquinoline-1-carboxylate

> <CAS>
2407530-70-3

> <URL>
https://www.enaminestore.com/catalog/EN300-4691230

> <ROCS_ShapeQuery>
_x0404_0B

> <ROCS_TanimotoCombo>
0.445 

> <ROCS_ShapeTanimoto>
0.380 

> <ROCS_ColorTanimoto>
0.065 

> <ROCS_RefTversky>
0.336 

> <ROCS_RefColorTversky>
0.070 

> <ROCS_RefTverskyCombo>
0.405 

> <ROCS_FitTversky>
1.542 

> <ROCS_FitColorTversky>
0.481 

> <ROCS_FitTverskyCombo>
2.022 

> <ROCS_ColorScore>
-5.018

> <ROCS_Overlap>
2242.457

> <ROCS_Rank>
144                 

$$$$
untitled-dbase-5111_460
  -OEChem-08222312023D

 44 45  0     1  0  0  0  0  0999 V2000
   -9.5876    4.5024  -16.2859 C   0  0  0  0  0  0  0  0  0  0  0  0
   -9.3225    4.6166  -17.6505 C   0  0  0  0  0  0  0  0  0  0  0  0
   -7.2890    5.0593  -15.7927 C   0  0  0  0  0  0  0  0  0  0  0  0
   -8.5709    4.7238  -15.3569 C   0  0  0  0  0  0  0  0  0  0  0  0
   -7.0239    5.1734  -17.1574 C   0  0  0  0  0  0  0  0  0  0  0  0
   -8.0407    4.9520  -18.0863 C   0  0  0  0  0  0  0  0  0  0  0  0
   -8.0589    3.4939  -13.2101 C   0  0  0  0  0  0  0  0  0  0  0  0
   -8.7011    4.5696   -9.5912 C   0  0  0  0  0  0  0  0  0  0  0  0
   -7.8329    3.5667  -11.7121 C   0  0  0  0  0  0  0  0  0  0  0  0
   -8.5868    5.9077  -13.1321 C   0  0  0  0  0  0  0  0  0  0  0  0
   -9.0514    5.7941  -11.6906 C   0  0  0  0  0  0  0  0  0  0  0  0
   -8.8594    4.5999  -13.8731 C   0  0  1  0  0  0  0  0  0  0  0  0
  -10.9806    3.5134   -8.2230 C   0  0  0  0  0  0  0  0  0  0  0  0
   -9.4819    1.6011   -7.5857 C   0  0  0  0  0  0  0  0  0  0  0  0
   -8.9410    3.9270   -6.8076 C   0  0  0  0  0  0  0  0  0  0  0  0
   -5.6520    5.5311  -17.6206 C   0  0  0  0  0  0  0  0  0  0  0  0
   -9.5422    3.0869   -7.9334 C   0  0  0  0  0  0  0  0  0  0  0  0
   -8.5373    4.6234  -10.9846 N   0  0  0  0  0  0  0  0  0  0  0  0
   -7.5989    2.5449  -13.8494 O   0  0  0  0  0  0  0  0  0  0  0  0
   -8.7772    5.5607   -8.8669 O   0  0  0  0  0  0  0  0  0  0  0  0
   -8.7610    3.2850   -9.1172 O   0  0  0  0  0  0  0  0  0  0  0  0
   -7.7952    5.0579  -19.3998 F   0  0  0  0  0  0  0  0  0  0  0  0
   -4.7612    5.7168  -16.6019 F   0  0  0  0  0  0  0  0  0  0  0  0
   -5.0821    4.5846  -18.4238 F   0  0  0  0  0  0  0  0  0  0  0  0
   -5.6272    6.6882  -18.3440 F   0  0  0  0  0  0  0  0  0  0  0  0
  -10.5896    4.2416  -15.9556 H   0  0  0  0  0  0  0  0  0  0  0  0
  -10.1142    4.4461  -18.3742 H   0  0  0  0  0  0  0  0  0  0  0  0
   -6.4963    5.2311  -15.0683 H   0  0  0  0  0  0  0  0  0  0  0  0
   -8.1616    2.6072  -11.2735 H   0  0  0  0  0  0  0  0  0  0  0  0
   -6.7458    3.6531  -11.5373 H   0  0  0  0  0  0  0  0  0  0  0  0
   -9.1136    6.7340  -13.6219 H   0  0  0  0  0  0  0  0  0  0  0  0
   -7.5182    6.1549  -13.1537 H   0  0  0  0  0  0  0  0  0  0  0  0
   -8.7746    6.7199  -11.1419 H   0  0  0  0  0  0  0  0  0  0  0  0
  -10.1617    5.7454  -11.6369 H   0  0  0  0  0  0  0  0  0  0  0  0
   -9.9188    4.3313  -13.7545 H   0  0  0  0  0  0  0  0  0  0  0  0
  -11.0281    4.5793   -8.4730 H   0  0  0  0  0  0  0  0  0  0  0  0
  -11.4116    2.9423   -9.0518 H   0  0  0  0  0  0  0  0  0  0  0  0
  -11.6150    3.3744   -7.3401 H   0  0  0  0  0  0  0  0  0  0  0  0
   -8.4517    1.2907   -7.3772 H   0  0  0  0  0  0  0  0  0  0  0  0
   -9.8242    0.9889   -8.4279 H   0  0  0  0  0  0  0  0  0  0  0  0
  -10.0986    1.3651   -6.7124 H   0  0  0  0  0  0  0  0  0  0  0  0
   -7.9092    3.6213   -6.5997 H   0  0  0  0  0  0  0  0  0  0  0  0
   -8.9421    4.9934   -7.0554 H   0  0  0  0  0  0  0  0  0  0  0  0
   -9.4993    3.7856   -5.8751 H   0  0  0  0  0  0  0  0  0  0  0  0
  1  2  1  0  0  0  0
  1  4  2  0  0  0  0
  2  6  2  0  0  0  0
  3  4  1  0  0  0  0
  3  5  2  0  0  0  0
  4 12  1  0  0  0  0
  5  6  1  0  0  0  0
  5 16  1  0  0  0  0
  6 22  1  0  0  0  0
  7  9  1  0  0  0  0
  7 12  1  0  0  0  0
  7 19  2  0  0  0  0
  8 18  1  0  0  0  0
  8 20  2  0  0  0  0
  8 21  1  0  0  0  0
  9 18  1  0  0  0  0
 10 11  1  0  0  0  0
 10 12  1  0  0  0  0
 11 18  1  0  0  0  0
 13 17  1  0  0  0  0
 14 17  1  0  0  0  0
 15 17  1  0  0  0  0
 16 23  1  0  0  0  0
 16 24  1  0  0  0  0
 16 25  1  0  0  0  0
 17 21  1  0  0  0  0
  1 26  1  0  0  0  0
  2 27  1  0  0  0  0
  3 28  1  0  0  0  0
  9 29  1  0  0  0  0
  9 30  1  0  0  0  0
 10 31  1  0  0  0  0
 10 32  1  0  0  0  0
 11 33  1  0  0  0  0
 11 34  1  0  0  0  0
 12 35  1  0  0  0  0
 13 36  1  0  0  0  0
 13 37  1  0  0  0  0
 13 38  1  0  0  0  0
 14 39  1  0  0  0  0
 14 40  1  0  0  0  0
 14 41  1  0  0  0  0
 15 42  1  0  0  0  0
 15 43  1  0  0  0  0
 15 44  1  0  0  0  0
M  END
> <id>
EN300-94544

> <smiles>
CC(C)(C)OC(=O)N1CCC(C(=O)C1)C=2C=CC(F)=C(C2)C(F)(F)F

> <MDLNUMBER>
MFCD20502189

> <IUPAC Name>
tert-butyl 4-[4-fluoro-3-(trifluoromethyl)phenyl]-3-oxopiperidine-1-carboxylate

> <CAS>
1354953-08-4

> <URL>
https://www.enaminestore.com/catalog/EN300-94544

> <ROCS_ShapeQuery>
_x0404_0B

> <ROCS_TanimotoCombo>
0.445 

> <ROCS_ShapeTanimoto>
0.394 

> <ROCS_ColorTanimoto>
0.051 

> <ROCS_RefTversky>
0.343 

> <ROCS_RefColorTversky>
0.054 

> <ROCS_RefTverskyCombo>
0.397 

> <ROCS_FitTversky>
1.616 

> <ROCS_FitColorTversky>
0.456 

> <ROCS_FitTverskyCombo>
2.072 

> <ROCS_ColorScore>
-3.891

> <ROCS_Overlap>
2289.646

> <ROCS_Rank>
145                 

$$$$
untitled-dbase-117580_5
  -OEChem-08222312023D

 45 46  0     1  0  0  0  0  0999 V2000
   -9.2090    6.2449  -12.2184 C   0  0  0  0  0  0  0  0  0  0  0  0
   -9.2453    6.6732  -10.8939 C   0  0  0  0  0  0  0  0  0  0  0  0
   -8.6217    4.0249  -11.4732 C   0  0  0  0  0  0  0  0  0  0  0  0
   -8.6828    4.4317  -10.1296 C   0  0  0  0  0  0  0  0  0  0  0  0
   -8.8892    4.9227  -12.5085 C   0  0  0  0  0  0  0  0  0  0  0  0
   -8.9661    5.7784   -9.8548 C   0  0  0  0  0  0  0  0  0  0  0  0
   -8.5019    5.2256  -14.9721 C   0  0  0  0  0  0  0  0  0  0  0  0
   -8.8598    4.0504   -7.6726 C   0  0  0  0  0  0  0  0  0  0  0  0
   -8.3869    3.4637   -9.0061 C   0  0  1  0  0  0  0  0  0  0  0  0
   -8.4530    5.5244   -7.5290 C   0  0  0  0  0  0  0  0  0  0  0  0
   -6.9315    5.7276   -7.4754 C   0  0  0  0  0  0  0  0  0  0  0  0
   -9.0634    6.0831   -6.2346 C   0  0  0  0  0  0  0  0  0  0  0  0
   -6.8263    5.5483  -17.2672 C   0  0  0  0  0  0  0  0  0  0  0  0
   -8.3949    3.9520  -18.4076 C   0  0  0  0  0  0  0  0  0  0  0  0
   -9.2472    6.1634  -17.5759 C   0  0  0  0  0  0  0  0  0  0  0  0
   -8.2601    5.0237  -17.3280 C   0  0  0  0  0  0  0  0  0  0  0  0
   -9.0172    2.1490   -9.1594 N   0  0  0  0  0  0  0  0  0  0  0  0
   -8.8345    4.4935  -13.8350 N   0  0  0  0  0  0  0  0  0  0  0  0
   -8.1886    6.4087  -15.0248 O   0  0  0  0  0  0  0  0  0  0  0  0
   -9.0012    6.3182   -8.5953 O   0  0  0  0  0  0  0  0  0  0  0  0
   -8.5754    4.4124  -16.0715 O   0  0  0  0  0  0  0  0  0  0  0  0
   -9.4209    6.9533  -13.0150 H   0  0  0  0  0  0  0  0  0  0  0  0
   -9.4802    7.7120  -10.6757 H   0  0  0  0  0  0  0  0  0  0  0  0
   -8.3655    2.9957  -11.7169 H   0  0  0  0  0  0  0  0  0  0  0  0
   -9.9572    3.9875   -7.6220 H   0  0  0  0  0  0  0  0  0  0  0  0
   -8.4677    3.4552   -6.8377 H   0  0  0  0  0  0  0  0  0  0  0  0
   -7.3033    3.3131   -8.9679 H   0  0  0  0  0  0  0  0  0  0  0  0
   -6.7124    6.7864   -7.3739 H   0  0  0  0  0  0  0  0  0  0  0  0
   -6.4848    5.3503   -8.3904 H   0  0  0  0  0  0  0  0  0  0  0  0
   -6.5256    5.1893   -6.6240 H   0  0  0  0  0  0  0  0  0  0  0  0
   -8.7813    7.1258   -6.1239 H   0  0  0  0  0  0  0  0  0  0  0  0
   -8.6932    5.5144   -5.3869 H   0  0  0  0  0  0  0  0  0  0  0  0
  -10.1452    6.0022   -6.2822 H   0  0  0  0  0  0  0  0  0  0  0  0
   -6.7253    6.3177  -16.4934 H   0  0  0  0  0  0  0  0  0  0  0  0
   -6.1119    4.7461  -17.0552 H   0  0  0  0  0  0  0  0  0  0  0  0
   -6.5430    6.0227  -18.2137 H   0  0  0  0  0  0  0  0  0  0  0  0
   -9.4222    3.5728  -18.4547 H   0  0  0  0  0  0  0  0  0  0  0  0
   -7.7574    3.0893  -18.1830 H   0  0  0  0  0  0  0  0  0  0  0  0
   -8.1219    4.3371  -19.3954 H   0  0  0  0  0  0  0  0  0  0  0  0
  -10.2758    5.7873  -17.6195 H   0  0  0  0  0  0  0  0  0  0  0  0
   -9.1904    6.9241  -16.7906 H   0  0  0  0  0  0  0  0  0  0  0  0
   -9.0526    6.6443  -18.5413 H   0  0  0  0  0  0  0  0  0  0  0  0
   -8.6836    1.7476  -10.0014 H   0  0  0  0  0  0  0  0  0  0  0  0
   -8.7626    1.5968   -8.3774 H   0  0  0  0  0  0  0  0  0  0  0  0
   -9.0706    3.5085  -13.9937 H   0  0  0  0  0  0  0  0  0  0  0  0
  1  2  1  0  0  0  0
  1  5  2  0  0  0  0
  2  6  2  0  0  0  0
  3  4  2  0  0  0  0
  3  5  1  0  0  0  0
  4  6  1  0  0  0  0
  4  9  1  0  0  0  0
  5 18  1  0  0  0  0
  6 20  1  0  0  0  0
  7 18  1  0  0  0  0
  7 19  2  0  0  0  0
  7 21  1  0  0  0  0
  8  9  1  0  0  0  0
  8 10  1  0  0  0  0
  9 17  1  0  0  0  0
 10 11  1  0  0  0  0
 10 12  1  0  0  0  0
 10 20  1  0  0  0  0
 13 16  1  0  0  0  0
 14 16  1  0  0  0  0
 15 16  1  0  0  0  0
 16 21  1  0  0  0  0
  1 22  1  0  0  0  0
  2 23  1  0  0  0  0
  3 24  1  0  0  0  0
  8 25  1  0  0  0  0
  8 26  1  0  0  0  0
  9 27  1  0  0  0  0
 11 28  1  0  0  0  0
 11 29  1  0  0  0  0
 11 30  1  0  0  0  0
 12 31  1  0  0  0  0
 12 32  1  0  0  0  0
 12 33  1  0  0  0  0
 13 34  1  0  0  0  0
 13 35  1  0  0  0  0
 13 36  1  0  0  0  0
 14 37  1  0  0  0  0
 14 38  1  0  0  0  0
 14 39  1  0  0  0  0
 15 40  1  0  0  0  0
 15 41  1  0  0  0  0
 15 42  1  0  0  0  0
 17 43  1  0  0  0  0
 17 44  1  0  0  0  0
 18 45  1  0  0  0  0
M  END
> <id>
EN300-216771

> <smiles>
CC(C)(C)OC(=O)NC=1C=CC=2OC(C)(C)CC(N)C2C1

> <MDLNUMBER>
MFCD20921678

> <IUPAC Name>
tert-butyl N-(4-amino-2,2-dimethyl-3,4-dihydro-2H-1-benzopyran-6-yl)carbamate

> <CAS>
1314406-35-3

> <Purity>
95

> <URL>
https://www.enaminestore.com/catalog/EN300-216771

> <ROCS_ShapeQuery>
_x0404_0B

> <ROCS_TanimotoCombo>
0.445 

> <ROCS_ShapeTanimoto>
0.340 

> <ROCS_ColorTanimoto>
0.105 

> <ROCS_RefTversky>
0.301 

> <ROCS_RefColorTversky>
0.111 

> <ROCS_RefTverskyCombo>
0.412 

> <ROCS_FitTversky>
1.624 

> <ROCS_FitColorTversky>
0.651 

> <ROCS_FitTverskyCombo>
2.275 

> <ROCS_ColorScore>
-8.034

> <ROCS_Overlap>
2006.001

> <ROCS_Rank>
146                 

$$$$
untitled-dbase-178916_3
  -OEChem-08222312023D

 30 33  0     0  0  0  0  0  0999 V2000
   -8.1491    5.1577  -18.1610 C   0  0  0  0  0  0  0  0  0  0  0  0
   -7.0146    4.6839  -17.5023 C   0  0  0  0  0  0  0  0  0  0  0  0
   -9.3204    5.4028  -17.4443 C   0  0  0  0  0  0  0  0  0  0  0  0
   -8.9925    2.3716   -7.9018 C   0  0  0  0  0  0  0  0  0  0  0  0
   -9.2355    3.5390   -7.1803 C   0  0  0  0  0  0  0  0  0  0  0  0
   -7.0513    4.4551  -16.1268 C   0  0  0  0  0  0  0  0  0  0  0  0
   -9.3572    5.1740  -16.0688 C   0  0  0  0  0  0  0  0  0  0  0  0
   -8.7541    2.4382   -9.2727 C   0  0  0  0  0  0  0  0  0  0  0  0
   -9.2395    4.7758   -7.8300 C   0  0  0  0  0  0  0  0  0  0  0  0
   -8.2226    4.7002  -15.4100 C   0  0  0  0  0  0  0  0  0  0  0  0
   -8.7628    3.6835   -9.9067 C   0  0  0  0  0  0  0  0  0  0  0  0
   -9.0023    4.8617   -9.2069 C   0  0  0  0  0  0  0  0  0  0  0  0
   -8.2616    4.4575  -13.9512 C   0  0  0  0  0  0  0  0  0  0  0  0
   -8.5214    3.8551  -11.3421 C   0  0  0  0  0  0  0  0  0  0  0  0
   -7.9951    3.0726  -13.3905 C   0  0  0  0  0  0  0  0  0  0  0  0
   -9.0130    6.1271   -9.8147 N   0  0  0  0  0  0  0  0  0  0  0  0
   -8.5149    5.4441  -13.1471 N   0  0  0  0  0  0  0  0  0  0  0  0
   -8.2514    2.8117  -12.0668 N   0  0  0  0  0  0  0  0  0  0  0  0
   -8.8391    6.2623  -11.0482 N   0  0  0  0  0  0  0  0  0  0  0  0
   -8.6035    5.1534  -11.8154 N   0  0  0  0  0  0  0  0  0  0  0  0
   -7.5076    2.2455  -14.1515 O   0  0  0  0  0  0  0  0  0  0  0  0
   -8.1205    5.3358  -19.2319 H   0  0  0  0  0  0  0  0  0  0  0  0
   -6.1028    4.4929  -18.0605 H   0  0  0  0  0  0  0  0  0  0  0  0
  -10.2037    5.7720  -17.9571 H   0  0  0  0  0  0  0  0  0  0  0  0
   -8.9887    1.4110   -7.3951 H   0  0  0  0  0  0  0  0  0  0  0  0
   -9.4207    3.4885   -6.1112 H   0  0  0  0  0  0  0  0  0  0  0  0
   -6.1615    4.0858  -15.6235 H   0  0  0  0  0  0  0  0  0  0  0  0
  -10.2754    5.3684  -15.5204 H   0  0  0  0  0  0  0  0  0  0  0  0
   -8.5641    1.5208   -9.8216 H   0  0  0  0  0  0  0  0  0  0  0  0
   -9.4289    5.6767   -7.2508 H   0  0  0  0  0  0  0  0  0  0  0  0
  1  2  2  0  0  0  0
  1  3  1  0  0  0  0
  2  6  1  0  0  0  0
  3  7  2  0  0  0  0
  4  5  2  0  0  0  0
  4  8  1  0  0  0  0
  5  9  1  0  0  0  0
  6 10  2  0  0  0  0
  7 10  1  0  0  0  0
  8 11  2  0  0  0  0
  9 12  2  0  0  0  0
 10 13  1  0  0  0  0
 11 12  1  0  0  0  0
 11 14  1  0  0  0  0
 12 16  1  0  0  0  0
 13 15  1  0  0  0  0
 13 17  2  0  0  0  0
 14 18  2  0  0  0  0
 14 20  1  0  0  0  0
 15 18  1  0  0  0  0
 15 21  2  0  0  0  0
 16 19  2  0  0  0  0
 17 20  1  0  0  0  0
 19 20  1  0  0  0  0
  1 22  1  0  0  0  0
  2 23  1  0  0  0  0
  3 24  1  0  0  0  0
  4 25  1  0  0  0  0
  5 26  1  0  0  0  0
  6 27  1  0  0  0  0
  7 28  1  0  0  0  0
  8 29  1  0  0  0  0
  9 30  1  0  0  0  0
M  END
> <id>
EN300-39246644

> <smiles>
O=C1N=C2C=3C=CC=CC3N=NN2N=C1C=4C=CC=CC4

> <IUPAC Name>
5-phenyl-3,6,7,8,9-pentaazatricyclo[8.4.0.0,2,7]tetradeca-1(10),2,5,8,11,13-hexaen-4-one

> <CAS>
1376224-03-1

> <Purity>
93

> <URL>
https://www.enaminestore.com/catalog/EN300-39246644

> <ROCS_ShapeQuery>
_x0404_0B

> <ROCS_TanimotoCombo>
0.445 

> <ROCS_ShapeTanimoto>
0.352 

> <ROCS_ColorTanimoto>
0.093 

> <ROCS_RefTversky>
0.311 

> <ROCS_RefColorTversky>
0.101 

> <ROCS_RefTverskyCombo>
0.412 

> <ROCS_FitTversky>
1.590 

> <ROCS_FitColorTversky>
0.533 

> <ROCS_FitTverskyCombo>
2.123 

> <ROCS_ColorScore>
-7.312

> <ROCS_Overlap>
2078.313

> <ROCS_Rank>
147                 

$$$$
untitled-dbase-122569_0
  -OEChem-08222312023D

 44 47  0     1  0  0  0  0  0999 V2000
   -9.3503    4.1326  -16.3737 C   0  0  0  0  0  0  0  0  0  0  0  0
   -9.5080    4.4153  -15.0169 C   0  0  0  0  0  0  0  0  0  0  0  0
   -7.3963    5.5891  -15.0160 C   0  0  0  0  0  0  0  0  0  0  0  0
   -8.8649    4.6901  -10.6600 C   0  0  0  0  0  0  0  0  0  0  0  0
   -8.9505    3.8473   -9.5037 C   0  0  0  0  0  0  0  0  0  0  0  0
   -8.2155    4.5781  -17.0516 C   0  0  0  0  0  0  0  0  0  0  0  0
   -7.2386    5.3064  -16.3728 C   0  0  0  0  0  0  0  0  0  0  0  0
   -8.5311    5.1435  -14.3381 C   0  0  0  0  0  0  0  0  0  0  0  0
   -9.0010    4.5994   -8.3446 C   0  0  0  0  0  0  0  0  0  0  0  0
   -8.8306    6.0291  -10.3266 C   0  0  0  0  0  0  0  0  0  0  0  0
   -8.8024    4.3183  -12.0687 C   0  0  0  0  0  0  0  0  0  0  0  0
   -8.7099    6.7644  -12.4385 C   0  0  0  0  0  0  0  0  0  0  0  0
   -9.0181    2.3492   -9.4710 C   0  0  0  0  0  0  0  0  0  0  0  0
   -9.0882    4.0469   -6.9552 C   0  0  0  0  0  0  0  0  0  0  0  0
   -8.7659    1.7849   -8.0637 C   0  0  0  0  0  0  0  0  0  0  0  0
   -9.5384    2.5704   -6.9843 C   0  0  1  0  0  0  0  0  0  0  0  0
   -8.0684    4.2626  -18.5040 C   0  0  0  0  0  0  0  0  0  0  0  0
   -6.0165    5.7954  -17.0784 C   0  0  0  0  0  0  0  0  0  0  0  0
   -9.3559    1.9288   -5.6106 C   0  0  0  0  0  0  0  0  0  0  0  0
   -8.7642    7.0815  -11.1779 N   0  0  0  0  0  0  0  0  0  0  0  0
   -8.6941    5.4366  -12.9409 N   0  0  0  0  0  0  0  0  0  0  0  0
   -8.8034    3.1401  -12.4151 O   0  0  0  0  0  0  0  0  0  0  0  0
   -8.9128    6.2716   -8.6383 S   0  0  0  0  0  0  0  0  0  0  0  0
   -8.7638    8.1252  -13.5588 S   0  0  0  0  0  0  0  0  0  0  0  0
  -10.1167    3.5636  -16.8936 H   0  0  0  0  0  0  0  0  0  0  0  0
  -10.3959    4.0619  -14.4991 H   0  0  0  0  0  0  0  0  0  0  0  0
   -6.6338    6.1572  -14.4873 H   0  0  0  0  0  0  0  0  0  0  0  0
  -10.0139    2.0390   -9.8117 H   0  0  0  0  0  0  0  0  0  0  0  0
   -8.2846    1.9178  -10.1610 H   0  0  0  0  0  0  0  0  0  0  0  0
   -8.1003    4.1300   -6.4836 H   0  0  0  0  0  0  0  0  0  0  0  0
   -9.7920    4.6302   -6.3490 H   0  0  0  0  0  0  0  0  0  0  0  0
   -9.0522    0.7267   -8.0461 H   0  0  0  0  0  0  0  0  0  0  0  0
   -7.6907    1.8266   -7.8438 H   0  0  0  0  0  0  0  0  0  0  0  0
  -10.6075    2.5349   -7.2359 H   0  0  0  0  0  0  0  0  0  0  0  0
   -8.5170    5.0563  -19.1125 H   0  0  0  0  0  0  0  0  0  0  0  0
   -7.0122    4.1628  -18.7829 H   0  0  0  0  0  0  0  0  0  0  0  0
   -8.5559    3.3122  -18.7544 H   0  0  0  0  0  0  0  0  0  0  0  0
   -5.2184    5.0463  -17.0192 H   0  0  0  0  0  0  0  0  0  0  0  0
   -6.2249    6.0015  -18.1355 H   0  0  0  0  0  0  0  0  0  0  0  0
   -5.6515    6.7309  -16.6367 H   0  0  0  0  0  0  0  0  0  0  0  0
   -8.3039    1.9481   -5.3309 H   0  0  0  0  0  0  0  0  0  0  0  0
   -9.6989    0.8958   -5.6372 H   0  0  0  0  0  0  0  0  0  0  0  0
   -9.9327    2.4772   -4.8675 H   0  0  0  0  0  0  0  0  0  0  0  0
   -8.8485    9.0787  -12.6270 H   0  0  0  0  0  0  0  0  0  0  0  0
  1  2  1  0  0  0  0
  1  6  2  0  0  0  0
  2  8  2  0  0  0  0
  3  7  2  0  0  0  0
  3  8  1  0  0  0  0
  4  5  1  0  0  0  0
  4 10  2  0  0  0  0
  4 11  1  0  0  0  0
  5  9  2  0  0  0  0
  5 13  1  0  0  0  0
  6  7  1  0  0  0  0
  6 17  1  0  0  0  0
  7 18  1  0  0  0  0
  8 21  1  0  0  0  0
  9 14  1  0  0  0  0
  9 23  1  0  0  0  0
 10 20  1  0  0  0  0
 10 23  1  0  0  0  0
 11 21  1  0  0  0  0
 11 22  2  0  0  0  0
 12 20  2  0  0  0  0
 12 21  1  0  0  0  0
 12 24  1  0  0  0  0
 13 15  1  0  0  0  0
 14 16  1  0  0  0  0
 15 16  1  0  0  0  0
 16 19  1  0  0  0  0
  1 25  1  0  0  0  0
  2 26  1  0  0  0  0
  3 27  1  0  0  0  0
 13 28  1  0  0  0  0
 13 29  1  0  0  0  0
 14 30  1  0  0  0  0
 14 31  1  0  0  0  0
 15 32  1  0  0  0  0
 15 33  1  0  0  0  0
 16 34  1  0  0  0  0
 17 35  1  0  0  0  0
 17 36  1  0  0  0  0
 17 37  1  0  0  0  0
 18 38  1  0  0  0  0
 18 39  1  0  0  0  0
 18 40  1  0  0  0  0
 19 41  1  0  0  0  0
 19 42  1  0  0  0  0
 19 43  1  0  0  0  0
 24 44  1  0  0  0  0
M  END
> <id>
EN300-06959

> <smiles>
CC1CCC2=C(C1)SC=3N=C(S)N(C=4C=CC(C)=C(C)C4)C(=O)C23

> <MDLNUMBER>
MFCD04618135

> <IUPAC Name>
4-(3,4-dimethylphenyl)-11-methyl-5-sulfanyl-8-thia-4,6-diazatricyclo[7.4.0.0,2,7]trideca-1(9),2(7),5-trien-3-one

> <CAS>
727704-59-8

> <URL>
https://www.enaminestore.com/catalog/EN300-06959

> <ROCS_ShapeQuery>
_x0404_0B

> <ROCS_TanimotoCombo>
0.445 

> <ROCS_ShapeTanimoto>
0.380 

> <ROCS_ColorTanimoto>
0.064 

> <ROCS_RefTversky>
0.332 

> <ROCS_RefColorTversky>
0.069 

> <ROCS_RefTverskyCombo>
0.402 

> <ROCS_FitTversky>
1.615 

> <ROCS_FitColorTversky>
0.478 

> <ROCS_FitTverskyCombo>
2.093 

> <ROCS_ColorScore>
-5.001

> <ROCS_Overlap>
2219.118

> <ROCS_Rank>
148                 

$$$$
untitled-dbase-90674_1294
  -OEChem-08222312023D

 54 56  0     0  0  0  0  0  0999 V2000
   -9.2923    5.5246  -16.3800 C   0  0  0  0  0  0  0  0  0  0  0  0
   -9.1736    4.8073  -15.1896 C   0  0  0  0  0  0  0  0  0  0  0  0
   -8.2019    5.6275  -17.2439 C   0  0  0  0  0  0  0  0  0  0  0  0
   -6.8743    4.2960  -15.7269 C   0  0  0  0  0  0  0  0  0  0  0  0
   -7.9647    4.1930  -14.8630 C   0  0  0  0  0  0  0  0  0  0  0  0
   -6.9929    5.0132  -16.9173 C   0  0  0  0  0  0  0  0  0  0  0  0
   -9.7466    3.1667   -8.2291 C   0  0  0  0  0  0  0  0  0  0  0  0
   -6.7381    3.9794  -12.6241 C   0  0  0  0  0  0  0  0  0  0  0  0
   -9.1327    3.2273  -12.7294 C   0  0  0  0  0  0  0  0  0  0  0  0
   -7.1745    5.2681  -11.9299 C   0  0  0  0  0  0  0  0  0  0  0  0
   -9.5640    4.4898  -11.9764 C   0  0  0  0  0  0  0  0  0  0  0  0
   -9.7997    5.6395   -8.6337 C   0  0  0  0  0  0  0  0  0  0  0  0
   -8.1745    4.2148   -9.8468 C   0  0  0  0  0  0  0  0  0  0  0  0
   -8.9771    6.6992   -9.3459 C   0  0  0  0  0  0  0  0  0  0  0  0
   -7.8351    3.4057  -13.5558 C   0  0  0  0  0  0  0  0  0  0  0  0
   -8.4542    5.0930  -11.0902 C   0  0  0  0  0  0  0  0  0  0  0  0
   -9.5828    2.6786   -5.4156 C   0  0  0  0  0  0  0  0  0  0  0  0
  -12.0574    3.1083   -5.3833 C   0  0  0  0  0  0  0  0  0  0  0  0
  -11.1402    1.1793   -6.7045 C   0  0  0  0  0  0  0  0  0  0  0  0
  -10.8816    2.6042   -6.2172 C   0  0  0  0  0  0  0  0  0  0  0  0
   -9.2644    4.3032   -8.8794 N   0  0  0  0  0  0  0  0  0  0  0  0
   -9.3208    2.0279   -8.4106 O   0  0  0  0  0  0  0  0  0  0  0  0
   -8.8942    6.4223  -10.7399 O   0  0  0  0  0  0  0  0  0  0  0  0
   -7.4228    2.0891  -13.9629 O   0  0  0  0  0  0  0  0  0  0  0  0
  -10.7627    3.4617   -7.3580 O   0  0  0  0  0  0  0  0  0  0  0  0
   -5.5160    5.1532  -18.0883 Br  0  0  0  0  0  0  0  0  0  0  0  0
  -10.2336    6.0030  -16.6342 H   0  0  0  0  0  0  0  0  0  0  0  0
  -10.0285    4.7325  -14.5227 H   0  0  0  0  0  0  0  0  0  0  0  0
   -8.3112    6.1902  -18.1675 H   0  0  0  0  0  0  0  0  0  0  0  0
   -5.9348    3.8143  -15.4656 H   0  0  0  0  0  0  0  0  0  0  0  0
   -5.8263    4.1735  -13.2002 H   0  0  0  0  0  0  0  0  0  0  0  0
   -6.4821    3.2407  -11.8565 H   0  0  0  0  0  0  0  0  0  0  0  0
   -8.9984    2.4171  -11.9979 H   0  0  0  0  0  0  0  0  0  0  0  0
   -9.9526    2.9133  -13.3928 H   0  0  0  0  0  0  0  0  0  0  0  0
   -6.3573    5.6295  -11.2858 H   0  0  0  0  0  0  0  0  0  0  0  0
   -7.3056    6.0425  -12.6992 H   0  0  0  0  0  0  0  0  0  0  0  0
   -9.8878    5.2328  -12.7247 H   0  0  0  0  0  0  0  0  0  0  0  0
  -10.4523    4.2642  -11.3635 H   0  0  0  0  0  0  0  0  0  0  0  0
   -9.8619    5.8645   -7.5608 H   0  0  0  0  0  0  0  0  0  0  0  0
  -10.8285    5.6358   -9.0257 H   0  0  0  0  0  0  0  0  0  0  0  0
   -8.1152    3.1572  -10.1362 H   0  0  0  0  0  0  0  0  0  0  0  0
   -7.2167    4.4816   -9.3857 H   0  0  0  0  0  0  0  0  0  0  0  0
   -9.4613    7.6726   -9.2348 H   0  0  0  0  0  0  0  0  0  0  0  0
   -7.9767    6.7885   -8.9164 H   0  0  0  0  0  0  0  0  0  0  0  0
   -8.7364    2.3176   -6.0108 H   0  0  0  0  0  0  0  0  0  0  0  0
   -9.3678    3.7016   -5.0900 H   0  0  0  0  0  0  0  0  0  0  0  0
   -9.6333    2.0365   -4.5288 H   0  0  0  0  0  0  0  0  0  0  0  0
  -12.9914    3.0568   -5.9545 H   0  0  0  0  0  0  0  0  0  0  0  0
  -11.9199    4.1610   -5.1110 H   0  0  0  0  0  0  0  0  0  0  0  0
  -12.1803    2.5258   -4.4645 H   0  0  0  0  0  0  0  0  0  0  0  0
  -12.0717    1.1257   -7.2795 H   0  0  0  0  0  0  0  0  0  0  0  0
  -10.3232    0.8143   -7.3353 H   0  0  0  0  0  0  0  0  0  0  0  0
  -11.2596    0.4936   -5.8579 H   0  0  0  0  0  0  0  0  0  0  0  0
   -7.3322    1.5655  -13.1519 H   0  0  0  0  0  0  0  0  0  0  0  0
  1  2  1  0  0  0  0
  1  3  2  0  0  0  0
  2  5  2  0  0  0  0
  3  6  1  0  0  0  0
  4  5  1  0  0  0  0
  4  6  2  0  0  0  0
  5 15  1  0  0  0  0
  6 26  1  0  0  0  0
  7 21  1  0  0  0  0
  7 22  2  0  0  0  0
  7 25  1  0  0  0  0
  8 10  1  0  0  0  0
  8 15  1  0  0  0  0
  9 11  1  0  0  0  0
  9 15  1  0  0  0  0
 10 16  1  0  0  0  0
 11 16  1  0  0  0  0
 12 14  1  0  0  0  0
 12 21  1  0  0  0  0
 13 16  1  0  0  0  0
 13 21  1  0  0  0  0
 14 23  1  0  0  0  0
 15 24  1  0  0  0  0
 16 23  1  0  0  0  0
 17 20  1  0  0  0  0
 18 20  1  0  0  0  0
 19 20  1  0  0  0  0
 20 25  1  0  0  0  0
  1 27  1  0  0  0  0
  2 28  1  0  0  0  0
  3 29  1  0  0  0  0
  4 30  1  0  0  0  0
  8 31  1  0  0  0  0
  8 32  1  0  0  0  0
  9 33  1  0  0  0  0
  9 34  1  0  0  0  0
 10 35  1  0  0  0  0
 10 36  1  0  0  0  0
 11 37  1  0  0  0  0
 11 38  1  0  0  0  0
 12 39  1  0  0  0  0
 12 40  1  0  0  0  0
 13 41  1  0  0  0  0
 13 42  1  0  0  0  0
 14 43  1  0  0  0  0
 14 44  1  0  0  0  0
 17 45  1  0  0  0  0
 17 46  1  0  0  0  0
 17 47  1  0  0  0  0
 18 48  1  0  0  0  0
 18 49  1  0  0  0  0
 18 50  1  0  0  0  0
 19 51  1  0  0  0  0
 19 52  1  0  0  0  0
 19 53  1  0  0  0  0
 24 54  1  0  0  0  0
M  END
> <id>
EN300-7429090

> <smiles>
CC(C)(C)OC(=O)N1CCOC2(CCC(O)(CC2)C=3C=CC=C(Br)C3)C1

> <IUPAC Name>
tert-butyl 9-(3-bromophenyl)-9-hydroxy-1-oxa-4-azaspiro[5.5]undecane-4-carboxylate

> <CAS>
2309474-15-3

> <URL>
https://www.enaminestore.com/catalog/EN300-7429090

> <ROCS_ShapeQuery>
_x0404_0B

> <ROCS_TanimotoCombo>
0.445 

> <ROCS_ShapeTanimoto>
0.331 

> <ROCS_ColorTanimoto>
0.114 

> <ROCS_RefTversky>
0.302 

> <ROCS_RefColorTversky>
0.119 

> <ROCS_RefTverskyCombo>
0.422 

> <ROCS_FitTversky>
1.403 

> <ROCS_FitColorTversky>
0.700 

> <ROCS_FitTverskyCombo>
2.103 

> <ROCS_ColorScore>
-8.631

> <ROCS_Overlap>
2019.969

> <ROCS_Rank>
149                 

$$$$
untitled-dbase-87642_703
  -OEChem-08222312023D

 45 47  0     0  0  0  0  0  0999 V2000
   -9.6223    4.8315  -15.0971 C   0  0  0  0  0  0  0  0  0  0  0  0
   -7.7345    6.6023  -15.9874 C   0  0  0  0  0  0  0  0  0  0  0  0
   -8.1837    5.6121  -16.8494 C   0  0  0  0  0  0  0  0  0  0  0  0
   -9.1484    4.7034  -16.4014 C   0  0  0  0  0  0  0  0  0  0  0  0
   -9.1137    5.8537  -14.3083 C   0  0  0  0  0  0  0  0  0  0  0  0
   -9.1753    3.6011  -18.4218 C   0  0  0  0  0  0  0  0  0  0  0  0
   -7.6696    5.4923  -18.2286 C   0  0  0  0  0  0  0  0  0  0  0  0
   -8.5276    5.0500   -9.0837 C   0  0  0  0  0  0  0  0  0  0  0  0
   -9.1207    7.0083  -12.1081 C   0  0  0  0  0  0  0  0  0  0  0  0
  -10.2455    4.8311  -12.3238 C   0  0  0  0  0  0  0  0  0  0  0  0
   -8.1141    6.3954  -11.1308 C   0  0  0  0  0  0  0  0  0  0  0  0
   -9.2513    4.1944  -11.3534 C   0  0  0  0  0  0  0  0  0  0  0  0
  -10.7551    4.1123   -8.0608 C   0  0  0  0  0  0  0  0  0  0  0  0
   -9.7487    1.8112   -8.0970 C   0  0  0  0  0  0  0  0  0  0  0  0
   -8.9948    3.4790   -6.3770 C   0  0  0  0  0  0  0  0  0  0  0  0
   -9.4927    3.2890   -7.8091 C   0  0  0  0  0  0  0  0  0  0  0  0
   -8.1816    6.7425  -14.7204 N   0  0  0  0  0  0  0  0  0  0  0  0
   -9.6488    3.6742  -17.2223 N   0  0  0  0  0  0  0  0  0  0  0  0
   -8.2269    4.4486  -18.9490 N   0  0  0  0  0  0  0  0  0  0  0  0
   -9.6038    5.9562  -13.0110 N   0  0  0  0  0  0  0  0  0  0  0  0
   -8.6690    5.2122  -10.4649 N   0  0  0  0  0  0  0  0  0  0  0  0
   -6.8246    6.2642  -18.6654 O   0  0  0  0  0  0  0  0  0  0  0  0
   -8.4580    5.9788   -8.2807 O   0  0  0  0  0  0  0  0  0  0  0  0
   -8.4716    3.7335   -8.7096 O   0  0  0  0  0  0  0  0  0  0  0  0
  -10.3725    4.1459  -14.7133 H   0  0  0  0  0  0  0  0  0  0  0  0
   -6.9890    7.3314  -16.2867 H   0  0  0  0  0  0  0  0  0  0  0  0
   -9.5102    2.8277  -19.1293 H   0  0  0  0  0  0  0  0  0  0  0  0
   -9.9403    7.4477  -11.5428 H   0  0  0  0  0  0  0  0  0  0  0  0
   -8.6489    7.7942  -12.6938 H   0  0  0  0  0  0  0  0  0  0  0  0
  -10.5643    4.0831  -13.0510 H   0  0  0  0  0  0  0  0  0  0  0  0
  -11.1257    5.1797  -11.7806 H   0  0  0  0  0  0  0  0  0  0  0  0
   -7.1970    6.1245  -11.6580 H   0  0  0  0  0  0  0  0  0  0  0  0
   -7.8470    7.1126  -10.3498 H   0  0  0  0  0  0  0  0  0  0  0  0
   -9.7477    3.4332  -10.7589 H   0  0  0  0  0  0  0  0  0  0  0  0
   -8.4284    3.7305  -11.8929 H   0  0  0  0  0  0  0  0  0  0  0  0
  -10.5755    5.1737   -7.8552 H   0  0  0  0  0  0  0  0  0  0  0  0
  -11.1026    4.0122   -9.0942 H   0  0  0  0  0  0  0  0  0  0  0  0
  -11.5652    3.8006   -7.3915 H   0  0  0  0  0  0  0  0  0  0  0  0
   -8.8455    1.2167   -7.9177 H   0  0  0  0  0  0  0  0  0  0  0  0
  -10.0146    1.6590   -9.1493 H   0  0  0  0  0  0  0  0  0  0  0  0
  -10.5557    1.4121   -7.4742 H   0  0  0  0  0  0  0  0  0  0  0  0
   -8.0894    2.8886   -6.1962 H   0  0  0  0  0  0  0  0  0  0  0  0
   -8.7708    4.5293   -6.1639 H   0  0  0  0  0  0  0  0  0  0  0  0
   -9.7416    3.1289   -5.6552 H   0  0  0  0  0  0  0  0  0  0  0  0
   -7.9196    4.3050  -19.9065 H   0  0  0  0  0  0  0  0  0  0  0  0
  1  4  1  0  0  0  0
  1  5  2  0  0  0  0
  2  3  1  0  0  0  0
  2 17  2  0  0  0  0
  3  4  2  0  0  0  0
  3  7  1  0  0  0  0
  4 18  1  0  0  0  0
  5 17  1  0  0  0  0
  5 20  1  0  0  0  0
  6 18  2  0  0  0  0
  6 19  1  0  0  0  0
  7 19  1  0  0  0  0
  7 22  2  0  0  0  0
  8 21  1  0  0  0  0
  8 23  2  0  0  0  0
  8 24  1  0  0  0  0
  9 11  1  0  0  0  0
  9 20  1  0  0  0  0
 10 12  1  0  0  0  0
 10 20  1  0  0  0  0
 11 21  1  0  0  0  0
 12 21  1  0  0  0  0
 13 16  1  0  0  0  0
 14 16  1  0  0  0  0
 15 16  1  0  0  0  0
 16 24  1  0  0  0  0
  1 25  1  0  0  0  0
  2 26  1  0  0  0  0
  6 27  1  0  0  0  0
  9 28  1  0  0  0  0
  9 29  1  0  0  0  0
 10 30  1  0  0  0  0
 10 31  1  0  0  0  0
 11 32  1  0  0  0  0
 11 33  1  0  0  0  0
 12 34  1  0  0  0  0
 12 35  1  0  0  0  0
 13 36  1  0  0  0  0
 13 37  1  0  0  0  0
 13 38  1  0  0  0  0
 14 39  1  0  0  0  0
 14 40  1  0  0  0  0
 14 41  1  0  0  0  0
 15 42  1  0  0  0  0
 15 43  1  0  0  0  0
 15 44  1  0  0  0  0
 19 45  1  0  0  0  0
M  END
> <id>
EN300-6738265

> <smiles>
CC(C)(C)OC(=O)N1CCN(CC1)C=2C=C3N=CNC(=O)C3=CN2

> <MDLNUMBER>
MFCD32703373

> <IUPAC Name>
tert-butyl 4-{4-oxo-3H,4H-pyrido[4,3-d]pyrimidin-7-yl}piperazine-1-carboxylate

> <CAS>
2460755-88-6

> <URL>
https://www.enaminestore.com/catalog/EN300-6738265

> <ROCS_ShapeQuery>
_x0404_0B

> <ROCS_TanimotoCombo>
0.444 

> <ROCS_ShapeTanimoto>
0.381 

> <ROCS_ColorTanimoto>
0.063 

> <ROCS_RefTversky>
0.334 

> <ROCS_RefColorTversky>
0.070 

> <ROCS_RefTverskyCombo>
0.403 

> <ROCS_FitTversky>
1.597 

> <ROCS_FitColorTversky>
0.408 

> <ROCS_FitTverskyCombo>
2.005 

> <ROCS_ColorScore>
-5.036

> <ROCS_Overlap>
2228.038

> <ROCS_Rank>
150                 

$$$$
untitled-dbase-118796_903
  -OEChem-08222312023D

 58 61  0     1  0  0  0  0  0999 V2000
   -9.1480    3.9913   -9.4211 B   0  0  0  0  0  0  0  0  0  0  0  0
   -7.7628    6.3034  -13.8160 C   0  0  0  0  0  0  0  0  0  0  0  0
   -8.9839    6.4961  -10.3871 C   0  0  0  0  0  0  0  0  0  0  0  0
   -8.9443    7.0788  -11.7913 C   0  0  0  0  0  0  0  0  0  0  0  0
   -6.6596    5.3267  -15.7913 C   0  0  0  0  0  0  0  0  0  0  0  0
   -7.0095    5.7262  -17.2276 C   0  0  0  0  0  0  0  0  0  0  0  0
   -8.4167    5.0345  -19.0749 C   0  0  0  0  0  0  0  0  0  0  0  0
   -8.6231    4.7080  -11.9641 C   0  0  0  0  0  0  0  0  0  0  0  0
   -8.9878    4.6638  -15.3536 C   0  0  0  0  0  0  0  0  0  0  0  0
   -9.8310    4.6450  -19.4875 C   0  0  0  0  0  0  0  0  0  0  0  0
  -10.3062    3.8459  -17.3333 C   0  0  0  0  0  0  0  0  0  0  0  0
   -9.3233    5.0250  -10.6343 C   0  0  1  0  0  0  0  0  0  0  0  0
   -8.9096    4.2385  -16.8330 C   0  0  1  0  0  0  0  0  0  0  0  0
   -8.9920    2.0034   -8.2982 C   0  0  0  0  0  0  0  0  0  0  0  0
   -8.8420    3.1975   -7.2967 C   0  0  0  0  0  0  0  0  0  0  0  0
   -7.8914    0.9380   -8.1945 C   0  0  0  0  0  0  0  0  0  0  0  0
  -10.3568    1.2805   -8.2473 C   0  0  0  0  0  0  0  0  0  0  0  0
   -7.3998    3.4562   -6.8054 C   0  0  0  0  0  0  0  0  0  0  0  0
   -9.7520    3.1171   -6.0628 C   0  0  0  0  0  0  0  0  0  0  0  0
   -8.4588    5.9970  -12.6462 N   0  0  0  0  0  0  0  0  0  0  0  0
   -7.8168    5.4231  -14.9041 N   0  0  0  0  0  0  0  0  0  0  0  0
   -8.3673    5.3401  -17.6406 N   0  0  1  0  0  0  0  0  0  0  0  0
   -7.0828    7.3391  -13.8800 O   0  0  0  0  0  0  0  0  0  0  0  0
   -8.8907    2.6358   -9.6149 O   0  0  0  0  0  0  0  0  0  0  0  0
   -9.2433    4.3660   -8.0828 O   0  0  0  0  0  0  0  0  0  0  0  0
  -10.2713    3.5225  -18.7236 O   0  0  0  0  0  0  0  0  0  0  0  0
   -8.0002    6.6019   -9.9087 H   0  0  0  0  0  0  0  0  0  0  0  0
   -9.7229    7.0029   -9.7547 H   0  0  0  0  0  0  0  0  0  0  0  0
   -9.9642    7.3341  -12.1022 H   0  0  0  0  0  0  0  0  0  0  0  0
   -8.3033    7.9649  -11.8633 H   0  0  0  0  0  0  0  0  0  0  0  0
   -6.2359    4.3182  -15.7768 H   0  0  0  0  0  0  0  0  0  0  0  0
   -5.8951    6.0026  -15.3902 H   0  0  0  0  0  0  0  0  0  0  0  0
   -6.8994    6.8287  -17.3110 H   0  0  0  0  0  0  0  0  0  0  0  0
   -6.2503    5.3021  -17.9231 H   0  0  0  0  0  0  0  0  0  0  0  0
   -7.7262    4.2106  -19.3126 H   0  0  0  0  0  0  0  0  0  0  0  0
   -8.1040    5.9099  -19.6613 H   0  0  0  0  0  0  0  0  0  0  0  0
   -7.6256    4.2735  -11.8175 H   0  0  0  0  0  0  0  0  0  0  0  0
   -9.2001    4.0298  -12.6039 H   0  0  0  0  0  0  0  0  0  0  0  0
   -9.8750    5.2941  -15.1706 H   0  0  0  0  0  0  0  0  0  0  0  0
   -9.0920    3.7463  -14.7587 H   0  0  0  0  0  0  0  0  0  0  0  0
  -10.5346    5.4749  -19.3588 H   0  0  0  0  0  0  0  0  0  0  0  0
   -9.8455    4.3559  -20.5421 H   0  0  0  0  0  0  0  0  0  0  0  0
  -10.6619    2.9566  -16.7993 H   0  0  0  0  0  0  0  0  0  0  0  0
  -11.0424    4.6438  -17.1645 H   0  0  0  0  0  0  0  0  0  0  0  0
  -10.4080    4.9919  -10.8444 H   0  0  0  0  0  0  0  0  0  0  0  0
   -8.2497    3.3705  -16.9114 H   0  0  0  0  0  0  0  0  0  0  0  0
   -8.0849    0.1612   -8.9235 H   0  0  0  0  0  0  0  0  0  0  0  0
   -7.9007    0.5197   -7.1959 H   0  0  0  0  0  0  0  0  0  0  0  0
   -6.9335    1.4024   -8.3931 H   0  0  0  0  0  0  0  0  0  0  0  0
  -10.3648    0.4725   -8.9731 H   0  0  0  0  0  0  0  0  0  0  0  0
  -11.1482    1.9864   -8.4815 H   0  0  0  0  0  0  0  0  0  0  0  0
  -10.5141    0.8757   -7.2518 H   0  0  0  0  0  0  0  0  0  0  0  0
   -7.3976    4.2982   -6.1194 H   0  0  0  0  0  0  0  0  0  0  0  0
   -6.7632    3.6797   -7.6564 H   0  0  0  0  0  0  0  0  0  0  0  0
   -7.0280    2.5720   -6.2960 H   0  0  0  0  0  0  0  0  0  0  0  0
   -9.5733    3.9830   -5.4379 H   0  0  0  0  0  0  0  0  0  0  0  0
   -9.5223    2.2114   -5.5158 H   0  0  0  0  0  0  0  0  0  0  0  0
  -10.7845    3.1017   -6.3887 H   0  0  0  0  0  0  0  0  0  0  0  0
  1 12  1  0  0  0  0
  1 24  1  0  0  0  0
  1 25  1  0  0  0  0
  2 20  1  0  0  0  0
  2 21  1  0  0  0  0
  2 23  2  0  0  0  0
  3  4  1  0  0  0  0
  3 12  1  0  0  0  0
  4 20  1  0  0  0  0
  5  6  1  0  0  0  0
  5 21  1  0  0  0  0
  6 22  1  0  0  0  0
  7 10  1  0  0  0  0
  7 22  1  0  0  0  0
  8 12  1  0  0  0  0
  8 20  1  0  0  0  0
  9 13  1  0  0  0  0
  9 21  1  0  0  0  0
 10 26  1  0  0  0  0
 11 13  1  0  0  0  0
 11 26  1  0  0  0  0
 13 22  1  0  0  0  0
 14 15  1  0  0  0  0
 14 16  1  0  0  0  0
 14 17  1  0  0  0  0
 14 24  1  0  0  0  0
 15 18  1  0  0  0  0
 15 19  1  0  0  0  0
 15 25  1  0  0  0  0
  3 27  1  0  0  0  0
  3 28  1  0  0  0  0
  4 29  1  0  0  0  0
  4 30  1  0  0  0  0
  5 31  1  0  0  0  0
  5 32  1  0  0  0  0
  6 33  1  0  0  0  0
  6 34  1  0  0  0  0
  7 35  1  0  0  0  0
  7 36  1  0  0  0  0
  8 37  1  0  0  0  0
  8 38  1  0  0  0  0
  9 39  1  0  0  0  0
  9 40  1  0  0  0  0
 10 41  1  0  0  0  0
 10 42  1  0  0  0  0
 11 43  1  0  0  0  0
 11 44  1  0  0  0  0
 12 45  1  0  0  0  0
 13 46  1  0  0  0  0
 16 47  1  0  0  0  0
 16 48  1  0  0  0  0
 16 49  1  0  0  0  0
 17 50  1  0  0  0  0
 17 51  1  0  0  0  0
 17 52  1  0  0  0  0
 18 53  1  0  0  0  0
 18 54  1  0  0  0  0
 18 55  1  0  0  0  0
 19 56  1  0  0  0  0
 19 57  1  0  0  0  0
 19 58  1  0  0  0  0
M  END
> <id>
EN300-6735935

> <smiles>
CC1(C)OB(OC1(C)C)C2CCN(C2)C(=O)N3CCN4CCOCC4C3

> <IUPAC Name>
1-{octahydropiperazino[2,1-c]morpholine-8-carbonyl}-3-(tetramethyl-1,3,2-dioxaborolan-2-yl)pyrrolidine

> <URL>
https://www.enaminestore.com/catalog/EN300-6735935

> <ROCS_ShapeQuery>
_x0404_0B

> <ROCS_TanimotoCombo>
0.444 

> <ROCS_ShapeTanimoto>
0.383 

> <ROCS_ColorTanimoto>
0.061 

> <ROCS_RefTversky>
0.337 

> <ROCS_RefColorTversky>
0.067 

> <ROCS_RefTverskyCombo>
0.404 

> <ROCS_FitTversky>
1.553 

> <ROCS_FitColorTversky>
0.394 

> <ROCS_FitTverskyCombo>
1.947 

> <ROCS_ColorScore>
-4.860

> <ROCS_Overlap>
2253.046

> <ROCS_Rank>
151                 

$$$$
untitled-dbase-131580_4
  -OEChem-08222312023D

 35 38  0     0  0  0  0  0  0999 V2000
   -9.3627    8.6305  -10.5837 C   0  0  0  0  0  0  0  0  0  0  0  0
   -9.3751    4.6443   -7.5554 C   0  0  0  0  0  0  0  0  0  0  0  0
   -9.3136    3.3859   -6.9577 C   0  0  0  0  0  0  0  0  0  0  0  0
   -8.7822    2.4048   -9.0971 C   0  0  0  0  0  0  0  0  0  0  0  0
   -8.1250    4.3603  -14.0715 C   0  0  0  0  0  0  0  0  0  0  0  0
   -8.8439    3.6706   -9.6979 C   0  0  0  0  0  0  0  0  0  0  0  0
   -9.1407    4.7935   -8.9288 C   0  0  0  0  0  0  0  0  0  0  0  0
   -8.4345    5.3367  -13.1336 C   0  0  0  0  0  0  0  0  0  0  0  0
   -9.0170    2.2663   -7.7291 C   0  0  0  0  0  0  0  0  0  0  0  0
   -8.5074    6.6051  -13.6827 C   0  0  0  0  0  0  0  0  0  0  0  0
   -8.0162    5.8708  -15.7749 C   0  0  0  0  0  0  0  0  0  0  0  0
   -9.0548    7.4964  -11.3985 C   0  0  0  0  0  0  0  0  0  0  0  0
   -8.5939    3.8247  -11.1580 C   0  0  0  0  0  0  0  0  0  0  0  0
   -8.8232    7.7546  -12.8394 C   0  0  0  0  0  0  0  0  0  0  0  0
   -8.9771    6.2419  -10.8859 C   0  0  0  0  0  0  0  0  0  0  0  0
   -8.9925    5.2612  -18.3105 C   0  0  0  0  0  0  0  0  0  0  0  0
   -9.6123    9.5507   -9.9229 N   0  0  0  0  0  0  0  0  0  0  0  0
   -7.9111    4.5914  -15.3911 N   0  0  0  0  0  0  0  0  0  0  0  0
   -8.3072    6.9126  -14.9857 N   0  0  0  0  0  0  0  0  0  0  0  0
   -9.2013    6.0452   -9.5305 N   0  0  0  0  0  0  0  0  0  0  0  0
   -8.6690    5.1334  -11.7231 N   0  0  0  0  0  0  0  0  0  0  0  0
   -8.3399    2.7826  -11.7588 O   0  0  0  0  0  0  0  0  0  0  0  0
   -8.8888    8.8784  -13.3241 O   0  0  0  0  0  0  0  0  0  0  0  0
   -8.0354    7.6220  -17.6899 O   0  0  0  0  0  0  0  0  0  0  0  0
   -6.4573    5.6658  -17.8596 O   0  0  0  0  0  0  0  0  0  0  0  0
   -7.7523    6.2079  -17.4452 S   0  0  0  0  0  0  0  0  0  0  0  0
   -8.9402    0.7117   -6.9944 Cl  0  0  0  0  0  0  0  0  0  0  0  0
   -9.6079    5.5112   -6.9413 H   0  0  0  0  0  0  0  0  0  0  0  0
   -9.4990    3.2953   -5.8906 H   0  0  0  0  0  0  0  0  0  0  0  0
   -8.5509    1.5211   -9.6874 H   0  0  0  0  0  0  0  0  0  0  0  0
   -8.0236    3.3098  -13.8401 H   0  0  0  0  0  0  0  0  0  0  0  0
   -8.8743    5.4358  -19.3811 H   0  0  0  0  0  0  0  0  0  0  0  0
   -8.8453    4.2057  -18.0766 H   0  0  0  0  0  0  0  0  0  0  0  0
   -9.9758    5.5940  -17.9750 H   0  0  0  0  0  0  0  0  0  0  0  0
   -9.4182    6.8420   -8.9458 H   0  0  0  0  0  0  0  0  0  0  0  0
  1 12  1  0  0  0  0
  1 17  3  0  0  0  0
  2  3  1  0  0  0  0
  2  7  2  0  0  0  0
  3  9  2  0  0  0  0
  4  6  2  0  0  0  0
  4  9  1  0  0  0  0
  5  8  2  0  0  0  0
  5 18  1  0  0  0  0
  6  7  1  0  0  0  0
  6 13  1  0  0  0  0
  7 20  1  0  0  0  0
  8 10  1  0  0  0  0
  8 21  1  0  0  0  0
  9 27  1  0  0  0  0
 10 14  1  0  0  0  0
 10 19  2  0  0  0  0
 11 18  2  0  0  0  0
 11 19  1  0  0  0  0
 11 26  1  0  0  0  0
 12 14  1  0  0  0  0
 12 15  2  0  0  0  0
 13 21  1  0  0  0  0
 13 22  2  0  0  0  0
 14 23  2  0  0  0  0
 15 20  1  0  0  0  0
 15 21  1  0  0  0  0
 16 26  1  0  0  0  0
 24 26  2  0  0  0  0
 25 26  2  0  0  0  0
  2 28  1  0  0  0  0
  3 29  1  0  0  0  0
  4 30  1  0  0  0  0
  5 31  1  0  0  0  0
 16 32  1  0  0  0  0
 16 33  1  0  0  0  0
 16 34  1  0  0  0  0
 20 35  1  0  0  0  0
M  END
> <id>
EN300-26614735

> <smiles>
CS(=O)(=O)C=1N=CC2=C(N1)C(=O)C(C#N)=C3NC=4C=CC(Cl)=CC4C(=O)N23

> <IUPAC Name>
8-chloro-2-methanesulfonyl-6,13-dioxo-11,13-dihydro-6H-1,3,5a,11-tetraazatetraphene-12-carbonitrile

> <CAS>
301522-49-6

> <URL>
https://www.enaminestore.com/catalog/EN300-26614735

> <ROCS_ShapeQuery>
_x0404_0B

> <ROCS_TanimotoCombo>
0.444 

> <ROCS_ShapeTanimoto>
0.368 

> <ROCS_ColorTanimoto>
0.076 

> <ROCS_RefTversky>
0.331 

> <ROCS_RefColorTversky>
0.085 

> <ROCS_RefTverskyCombo>
0.416 

> <ROCS_FitTversky>
1.440 

> <ROCS_FitColorTversky>
0.405 

> <ROCS_FitTverskyCombo>
1.845 

> <ROCS_ColorScore>
-6.152

> <ROCS_Overlap>
2214.795

> <ROCS_Rank>
152                 

$$$$
untitled-dbase-121788_116
  -OEChem-08222312023D

 47 50  0     1  0  0  0  0  0999 V2000
   -9.3677    2.7764   -6.7813 C   0  0  0  0  0  0  0  0  0  0  0  0
   -9.9760    2.2097   -7.8982 C   0  0  0  0  0  0  0  0  0  0  0  0
   -8.5306    3.8785   -6.9319 C   0  0  0  0  0  0  0  0  0  0  0  0
   -9.7469    2.7391   -9.1711 C   0  0  0  0  0  0  0  0  0  0  0  0
   -8.3106    4.4213   -8.2029 C   0  0  0  0  0  0  0  0  0  0  0  0
   -8.9151    3.8535   -9.3428 C   0  0  0  0  0  0  0  0  0  0  0  0
   -8.6513    6.7604  -11.7626 C   0  0  0  0  0  0  0  0  0  0  0  0
   -8.3987    4.0692  -14.1504 C   0  0  0  0  0  0  0  0  0  0  0  0
   -7.4086    5.6073   -8.3962 C   0  0  0  0  0  0  0  0  0  0  0  0
   -9.1830    6.1216  -13.0346 C   0  0  0  0  0  0  0  0  0  0  0  0
   -8.0085    4.8392  -18.3825 C   0  0  0  0  0  0  0  0  0  0  0  0
   -7.2815    5.7670  -17.4137 C   0  0  0  0  0  0  0  0  0  0  0  0
   -9.3798    4.4348  -17.8496 C   0  0  0  0  0  0  0  0  0  0  0  0
   -7.1804    5.1568  -16.0182 C   0  0  0  0  0  0  0  0  0  0  0  0
   -9.2838    3.8217  -16.4551 C   0  0  0  0  0  0  0  0  0  0  0  0
   -8.0447    6.5681   -9.3928 C   0  0  0  0  0  0  0  0  0  0  0  0
   -9.4698    4.0128  -11.8501 C   0  0  0  0  0  0  0  0  0  0  0  0
   -8.5638    4.4511  -10.7000 C   0  0  1  0  0  0  0  0  0  0  0  0
   -8.5529    4.7469  -15.4796 C   0  0  0  0  0  0  0  0  0  0  0  0
   -8.4589    5.9345  -10.6511 N   0  0  0  0  0  0  0  0  0  0  0  0
   -9.0147    4.6840  -13.0615 N   0  0  0  0  0  0  0  0  0  0  0  0
   -8.5216    7.9887  -11.7291 O   0  0  0  0  0  0  0  0  0  0  0  0
   -7.7481    3.0236  -14.0784 O   0  0  0  0  0  0  0  0  0  0  0  0
   -9.5445    2.3575   -5.7955 H   0  0  0  0  0  0  0  0  0  0  0  0
  -10.6364    1.3534   -7.7807 H   0  0  0  0  0  0  0  0  0  0  0  0
   -8.0484    4.3049   -6.0586 H   0  0  0  0  0  0  0  0  0  0  0  0
  -10.2283    2.2737  -10.0276 H   0  0  0  0  0  0  0  0  0  0  0  0
   -7.2481    6.1007   -7.4345 H   0  0  0  0  0  0  0  0  0  0  0  0
   -6.4386    5.2883   -8.7848 H   0  0  0  0  0  0  0  0  0  0  0  0
  -10.2444    6.3889  -13.1417 H   0  0  0  0  0  0  0  0  0  0  0  0
   -8.6433    6.5468  -13.8942 H   0  0  0  0  0  0  0  0  0  0  0  0
   -8.1252    5.3406  -19.3513 H   0  0  0  0  0  0  0  0  0  0  0  0
   -7.4028    3.9428  -18.5582 H   0  0  0  0  0  0  0  0  0  0  0  0
   -6.2769    5.9778  -17.7975 H   0  0  0  0  0  0  0  0  0  0  0  0
   -7.8077    6.7256  -17.3585 H   0  0  0  0  0  0  0  0  0  0  0  0
  -10.0320    5.3151  -17.8167 H   0  0  0  0  0  0  0  0  0  0  0  0
   -9.8471    3.7241  -18.5412 H   0  0  0  0  0  0  0  0  0  0  0  0
   -6.5046    4.3042  -16.0436 H   0  0  0  0  0  0  0  0  0  0  0  0
   -6.7553    5.8990  -15.3427 H   0  0  0  0  0  0  0  0  0  0  0  0
  -10.2924    3.6485  -16.0763 H   0  0  0  0  0  0  0  0  0  0  0  0
   -8.7831    2.8556  -16.5176 H   0  0  0  0  0  0  0  0  0  0  0  0
   -8.9148    7.0699   -8.9275 H   0  0  0  0  0  0  0  0  0  0  0  0
   -7.3397    7.3788   -9.6661 H   0  0  0  0  0  0  0  0  0  0  0  0
   -9.4130    2.9483  -12.0029 H   0  0  0  0  0  0  0  0  0  0  0  0
  -10.4930    4.3034  -11.6692 H   0  0  0  0  0  0  0  0  0  0  0  0
   -7.5068    4.1245  -10.9097 H   0  0  0  0  0  0  0  0  0  0  0  0
   -9.1505    5.6282  -15.3046 H   0  0  0  0  0  0  0  0  0  0  0  0
  1  2  2  0  0  0  0
  1  3  1  0  0  0  0
  2  4  1  0  0  0  0
  3  5  2  0  0  0  0
  4  6  2  0  0  0  0
  5  6  1  0  0  0  0
  5  9  1  0  0  0  0
  6 18  1  0  0  0  0
  7 10  1  0  0  0  0
  7 20  1  0  0  0  0
  7 22  2  0  0  0  0
  8 19  1  0  0  0  0
  8 21  1  0  0  0  0
  8 23  2  0  0  0  0
  9 16  1  0  0  0  0
 10 21  1  0  0  0  0
 11 12  1  0  0  0  0
 11 13  1  0  0  0  0
 12 14  1  0  0  0  0
 13 15  1  0  0  0  0
 14 19  1  0  0  0  0
 15 19  1  0  0  0  0
 16 20  1  0  0  0  0
 17 18  1  0  0  0  0
 17 21  1  0  0  0  0
 18 20  1  0  0  0  0
  1 24  1  0  0  0  0
  2 25  1  0  0  0  0
  3 26  1  0  0  0  0
  4 27  1  0  0  0  0
  9 28  1  0  0  0  0
  9 29  1  0  0  0  0
 10 30  1  0  0  0  0
 10 31  1  0  0  0  0
 11 32  1  0  0  0  0
 11 33  1  0  0  0  0
 12 34  1  0  0  0  0
 12 35  1  0  0  0  0
 13 36  1  0  0  0  0
 13 37  1  0  0  0  0
 14 38  1  0  0  0  0
 14 39  1  0  0  0  0
 15 40  1  0  0  0  0
 15 41  1  0  0  0  0
 16 42  1  0  0  0  0
 16 43  1  0  0  0  0
 17 44  1  0  0  0  0
 17 45  1  0  0  0  0
 18 46  1  0  0  0  0
 19 47  1  0  0  0  0
M  END
> <id>
EN300-123768

> <smiles>
O=C(C1CCCCC1)N2CC3N(CCC=4C=CC=CC34)C(=O)C2

> <MDLNUMBER>
MFCD00058531

> <IUPAC Name>
2-cyclohexanecarbonyl-1H,2H,3H,4H,6H,7H,11bH-pyrazino[2,1-a]isoquinolin-4-one

> <CAS>
55268-74-1

> <Purity>
95

> <URL>
https://www.enaminestore.com/catalog/EN300-123768

> <MP>
136-138

> <ROCS_ShapeQuery>
_x0404_0B

> <ROCS_TanimotoCombo>
0.444 

> <ROCS_ShapeTanimoto>
0.367 

> <ROCS_ColorTanimoto>
0.077 

> <ROCS_RefTversky>
0.322 

> <ROCS_RefColorTversky>
0.081 

> <ROCS_RefTverskyCombo>
0.403 

> <ROCS_FitTversky>
1.611 

> <ROCS_FitColorTversky>
0.613 

> <ROCS_FitTverskyCombo>
2.224 

> <ROCS_ColorScore>
-5.818

> <ROCS_Overlap>
2152.074

> <ROCS_Rank>
153                 

$$$$
untitled-dbase-144232_902
  -OEChem-08222312023D

 55 57  0     0  0  0  0  0  0999 V2000
  -10.0865    4.5949  -17.2101 C   0  0  0  0  0  0  0  0  0  0  0  0
  -10.1777    3.8091  -18.3476 C   0  0  0  0  0  0  0  0  0  0  0  0
   -7.9865    4.2107  -18.9092 C   0  0  0  0  0  0  0  0  0  0  0  0
   -8.8678    5.2061  -16.9373 C   0  0  0  0  0  0  0  0  0  0  0  0
   -7.7927    5.0155  -17.7981 C   0  0  0  0  0  0  0  0  0  0  0  0
   -8.7249    4.8699   -8.6069 C   0  0  0  0  0  0  0  0  0  0  0  0
   -7.6713    5.5246  -14.7325 C   0  0  0  0  0  0  0  0  0  0  0  0
  -10.1232    6.1937  -14.9758 C   0  0  0  0  0  0  0  0  0  0  0  0
   -7.6302    6.2361  -13.3746 C   0  0  0  0  0  0  0  0  0  0  0  0
  -10.0446    6.9047  -13.6207 C   0  0  0  0  0  0  0  0  0  0  0  0
   -8.9086    7.1885  -11.3979 C   0  0  0  0  0  0  0  0  0  0  0  0
   -9.4703    4.8777  -12.2011 C   0  0  0  0  0  0  0  0  0  0  0  0
   -8.0695    6.5795  -10.2769 C   0  0  0  0  0  0  0  0  0  0  0  0
   -8.6315    4.2939  -11.0640 C   0  0  0  0  0  0  0  0  0  0  0  0
   -8.7556    6.0776  -15.6816 C   0  0  0  0  0  0  0  0  0  0  0  0
   -9.0028    6.2859  -12.6557 C   0  0  0  0  0  0  0  0  0  0  0  0
  -10.8996    3.4160   -8.3933 C   0  0  0  0  0  0  0  0  0  0  0  0
   -9.4646    1.3545   -8.3807 C   0  0  0  0  0  0  0  0  0  0  0  0
   -9.5634    2.8220   -6.3448 C   0  0  0  0  0  0  0  0  0  0  0  0
   -9.6084    2.7872   -7.8717 C   0  0  0  0  0  0  0  0  0  0  0  0
   -9.1554    3.6005  -19.2073 N   0  0  0  0  0  0  0  0  0  0  0  0
   -8.5217    5.2310   -9.9435 N   0  0  0  0  0  0  0  0  0  0  0  0
   -9.0678    5.6523   -7.7221 O   0  0  0  0  0  0  0  0  0  0  0  0
   -8.3567    7.4009  -16.0717 O   0  0  0  0  0  0  0  0  0  0  0  0
   -8.4987    3.5383   -8.3779 O   0  0  0  0  0  0  0  0  0  0  0  0
   -6.1029    5.8075  -17.5035 Br  0  0  0  0  0  0  0  0  0  0  0  0
  -10.9448    4.7229  -16.5593 H   0  0  0  0  0  0  0  0  0  0  0  0
  -11.1063    3.3105  -18.6052 H   0  0  0  0  0  0  0  0  0  0  0  0
   -7.1890    4.0203  -19.6214 H   0  0  0  0  0  0  0  0  0  0  0  0
   -6.6829    5.6270  -15.2003 H   0  0  0  0  0  0  0  0  0  0  0  0
   -7.8249    4.4505  -14.5689 H   0  0  0  0  0  0  0  0  0  0  0  0
  -10.5592    5.1969  -14.8321 H   0  0  0  0  0  0  0  0  0  0  0  0
  -10.8236    6.7501  -15.6128 H   0  0  0  0  0  0  0  0  0  0  0  0
   -6.8725    5.7471  -12.7533 H   0  0  0  0  0  0  0  0  0  0  0  0
   -7.2677    7.2606  -13.5313 H   0  0  0  0  0  0  0  0  0  0  0  0
   -9.8028    7.9622  -13.7908 H   0  0  0  0  0  0  0  0  0  0  0  0
  -11.0406    6.8948  -13.1597 H   0  0  0  0  0  0  0  0  0  0  0  0
   -9.9179    7.3788  -11.0078 H   0  0  0  0  0  0  0  0  0  0  0  0
   -8.4935    8.1687  -11.6640 H   0  0  0  0  0  0  0  0  0  0  0  0
   -9.4699    4.1681  -13.0351 H   0  0  0  0  0  0  0  0  0  0  0  0
  -10.5124    4.9373  -11.8576 H   0  0  0  0  0  0  0  0  0  0  0  0
   -7.0154    6.5090  -10.5670 H   0  0  0  0  0  0  0  0  0  0  0  0
   -8.1136    7.2273   -9.3953 H   0  0  0  0  0  0  0  0  0  0  0  0
   -9.0744    3.3462  -10.7445 H   0  0  0  0  0  0  0  0  0  0  0  0
   -7.6137    4.0700  -11.4010 H   0  0  0  0  0  0  0  0  0  0  0  0
  -11.0065    4.4445   -8.0302 H   0  0  0  0  0  0  0  0  0  0  0  0
  -10.9286    3.4289   -9.4877 H   0  0  0  0  0  0  0  0  0  0  0  0
  -11.7762    2.8674   -8.0303 H   0  0  0  0  0  0  0  0  0  0  0  0
   -8.5395    0.8994   -8.0089 H   0  0  0  0  0  0  0  0  0  0  0  0
   -9.4009    1.3335   -9.4746 H   0  0  0  0  0  0  0  0  0  0  0  0
  -10.3078    0.7290   -8.0703 H   0  0  0  0  0  0  0  0  0  0  0  0
   -8.6373    2.3710   -5.9704 H   0  0  0  0  0  0  0  0  0  0  0  0
   -9.6282    3.8460   -5.9627 H   0  0  0  0  0  0  0  0  0  0  0  0
  -10.3866    2.2381   -5.9173 H   0  0  0  0  0  0  0  0  0  0  0  0
   -8.2960    7.9219  -15.2563 H   0  0  0  0  0  0  0  0  0  0  0  0
  1  2  1  0  0  0  0
  1  4  2  0  0  0  0
  2 21  2  0  0  0  0
  3  5  2  0  0  0  0
  3 21  1  0  0  0  0
  4  5  1  0  0  0  0
  4 15  1  0  0  0  0
  5 26  1  0  0  0  0
  6 22  1  0  0  0  0
  6 23  2  0  0  0  0
  6 25  1  0  0  0  0
  7  9  1  0  0  0  0
  7 15  1  0  0  0  0
  8 10  1  0  0  0  0
  8 15  1  0  0  0  0
  9 16  1  0  0  0  0
 10 16  1  0  0  0  0
 11 13  1  0  0  0  0
 11 16  1  0  0  0  0
 12 14  1  0  0  0  0
 12 16  1  0  0  0  0
 13 22  1  0  0  0  0
 14 22  1  0  0  0  0
 15 24  1  0  0  0  0
 17 20  1  0  0  0  0
 18 20  1  0  0  0  0
 19 20  1  0  0  0  0
 20 25  1  0  0  0  0
  1 27  1  0  0  0  0
  2 28  1  0  0  0  0
  3 29  1  0  0  0  0
  7 30  1  0  0  0  0
  7 31  1  0  0  0  0
  8 32  1  0  0  0  0
  8 33  1  0  0  0  0
  9 34  1  0  0  0  0
  9 35  1  0  0  0  0
 10 36  1  0  0  0  0
 10 37  1  0  0  0  0
 11 38  1  0  0  0  0
 11 39  1  0  0  0  0
 12 40  1  0  0  0  0
 12 41  1  0  0  0  0
 13 42  1  0  0  0  0
 13 43  1  0  0  0  0
 14 44  1  0  0  0  0
 14 45  1  0  0  0  0
 17 46  1  0  0  0  0
 17 47  1  0  0  0  0
 17 48  1  0  0  0  0
 18 49  1  0  0  0  0
 18 50  1  0  0  0  0
 18 51  1  0  0  0  0
 19 52  1  0  0  0  0
 19 53  1  0  0  0  0
 19 54  1  0  0  0  0
 24 55  1  0  0  0  0
M  END
> <id>
EN300-7428349

> <smiles>
CC(C)(C)OC(=O)N1CCC2(CC1)CCC(O)(CC2)C=3C=CN=CC3Br

> <IUPAC Name>
tert-butyl 9-(3-bromopyridin-4-yl)-9-hydroxy-3-azaspiro[5.5]undecane-3-carboxylate

> <CAS>
2309464-16-0

> <URL>
https://www.enaminestore.com/catalog/EN300-7428349

> <ROCS_ShapeQuery>
_x0404_0B

> <ROCS_TanimotoCombo>
0.444 

> <ROCS_ShapeTanimoto>
0.399 

> <ROCS_ColorTanimoto>
0.045 

> <ROCS_RefTversky>
0.347 

> <ROCS_RefColorTversky>
0.050 

> <ROCS_RefTverskyCombo>
0.397 

> <ROCS_FitTversky>
1.614 

> <ROCS_FitColorTversky>
0.294 

> <ROCS_FitTverskyCombo>
1.908 

> <ROCS_ColorScore>
-3.619

> <ROCS_Overlap>
2316.233

> <ROCS_Rank>
154                 

$$$$
untitled-dbase-149498_224
  -OEChem-08222312023D

 48 49  0     0  0  0  0  0  0999 V2000
   -9.7457    8.8513  -12.5104 C   0  0  0  0  0  0  0  0  0  0  0  0
   -9.7126    8.9736  -11.1271 C   0  0  0  0  0  0  0  0  0  0  0  0
   -9.4847    7.6212  -13.1174 C   0  0  0  0  0  0  0  0  0  0  0  0
   -9.4183    7.8743  -10.3140 C   0  0  0  0  0  0  0  0  0  0  0  0
   -9.1854    6.4982  -12.3178 C   0  0  0  0  0  0  0  0  0  0  0  0
   -9.1539    6.6325  -10.9230 C   0  0  0  0  0  0  0  0  0  0  0  0
   -8.8829    5.1497  -12.6195 C   0  0  0  0  0  0  0  0  0  0  0  0
   -8.6753    4.4945  -11.4317 C   0  0  0  0  0  0  0  0  0  0  0  0
   -8.7004    5.0716   -9.0182 C   0  0  0  0  0  0  0  0  0  0  0  0
   -8.4408    5.1736  -15.0924 C   0  0  0  0  0  0  0  0  0  0  0  0
  -10.6805    3.0501   -8.8077 C   0  0  0  0  0  0  0  0  0  0  0  0
   -8.8072    1.5555   -8.0551 C   0  0  0  0  0  0  0  0  0  0  0  0
   -9.4102    3.5833   -6.7013 C   0  0  0  0  0  0  0  0  0  0  0  0
   -6.7140    5.2238  -17.3716 C   0  0  0  0  0  0  0  0  0  0  0  0
   -8.2772    3.5256  -18.3625 C   0  0  0  0  0  0  0  0  0  0  0  0
   -9.1206    5.8235  -17.7998 C   0  0  0  0  0  0  0  0  0  0  0  0
   -9.3236    2.9918   -8.1075 C   0  0  0  0  0  0  0  0  0  0  0  0
   -8.1523    4.7091  -17.4055 C   0  0  0  0  0  0  0  0  0  0  0  0
   -8.8358    5.3822  -10.3819 N   0  0  0  0  0  0  0  0  0  0  0  0
   -8.8065    4.5822  -13.8738 N   0  0  0  0  0  0  0  0  0  0  0  0
   -8.8587    5.9154   -8.1515 O   0  0  0  0  0  0  0  0  0  0  0  0
   -8.1126    6.3405  -15.2689 O   0  0  0  0  0  0  0  0  0  0  0  0
   -8.3856    3.7596   -8.8678 O   0  0  0  0  0  0  0  0  0  0  0  0
   -8.5009    4.2441  -16.0963 O   0  0  0  0  0  0  0  0  0  0  0  0
   -8.2793    2.8368  -11.2522 Cl  0  0  0  0  0  0  0  0  0  0  0  0
   -9.9762    9.7168  -13.1253 H   0  0  0  0  0  0  0  0  0  0  0  0
   -9.9176    9.9373  -10.6680 H   0  0  0  0  0  0  0  0  0  0  0  0
   -9.5137    7.5386  -14.2006 H   0  0  0  0  0  0  0  0  0  0  0  0
   -9.4032    8.0148   -9.2398 H   0  0  0  0  0  0  0  0  0  0  0  0
  -11.0546    4.0794   -8.8473 H   0  0  0  0  0  0  0  0  0  0  0  0
  -10.6242    2.6609   -9.8295 H   0  0  0  0  0  0  0  0  0  0  0  0
  -11.4298    2.4698   -8.2571 H   0  0  0  0  0  0  0  0  0  0  0  0
   -7.8338    1.5090   -7.5536 H   0  0  0  0  0  0  0  0  0  0  0  0
   -8.6532    1.1590   -9.0653 H   0  0  0  0  0  0  0  0  0  0  0  0
   -9.5019    0.8955   -7.5257 H   0  0  0  0  0  0  0  0  0  0  0  0
   -8.4370    3.5416   -6.1989 H   0  0  0  0  0  0  0  0  0  0  0  0
   -9.7439    4.6258   -6.7222 H   0  0  0  0  0  0  0  0  0  0  0  0
  -10.1045    3.0077   -6.0786 H   0  0  0  0  0  0  0  0  0  0  0  0
   -6.6202    6.0734  -16.6858 H   0  0  0  0  0  0  0  0  0  0  0  0
   -6.0137    4.4435  -17.0564 H   0  0  0  0  0  0  0  0  0  0  0  0
   -6.4056    5.5876  -18.3584 H   0  0  0  0  0  0  0  0  0  0  0  0
   -9.3076    3.1531  -18.3899 H   0  0  0  0  0  0  0  0  0  0  0  0
   -7.6546    2.6872  -18.0297 H   0  0  0  0  0  0  0  0  0  0  0  0
   -7.9791    3.7960  -19.3806 H   0  0  0  0  0  0  0  0  0  0  0  0
  -10.1524    5.4545  -17.8241 H   0  0  0  0  0  0  0  0  0  0  0  0
   -9.0713    6.6661  -17.1025 H   0  0  0  0  0  0  0  0  0  0  0  0
   -8.9003    6.1924  -18.8080 H   0  0  0  0  0  0  0  0  0  0  0  0
   -9.0534    3.5805  -13.9233 H   0  0  0  0  0  0  0  0  0  0  0  0
  1  2  2  0  0  0  0
  1  3  1  0  0  0  0
  2  4  1  0  0  0  0
  3  5  2  0  0  0  0
  4  6  2  0  0  0  0
  5  6  1  0  0  0  0
  5  7  1  0  0  0  0
  6 19  1  0  0  0  0
  7  8  2  0  0  0  0
  7 20  1  0  0  0  0
  8 19  1  0  0  0  0
  8 25  1  0  0  0  0
  9 19  1  0  0  0  0
  9 21  2  0  0  0  0
  9 23  1  0  0  0  0
 10 20  1  0  0  0  0
 10 22  2  0  0  0  0
 10 24  1  0  0  0  0
 11 17  1  0  0  0  0
 12 17  1  0  0  0  0
 13 17  1  0  0  0  0
 14 18  1  0  0  0  0
 15 18  1  0  0  0  0
 16 18  1  0  0  0  0
 17 23  1  0  0  0  0
 18 24  1  0  0  0  0
  1 26  1  0  0  0  0
  2 27  1  0  0  0  0
  3 28  1  0  0  0  0
  4 29  1  0  0  0  0
 11 30  1  0  0  0  0
 11 31  1  0  0  0  0
 11 32  1  0  0  0  0
 12 33  1  0  0  0  0
 12 34  1  0  0  0  0
 12 35  1  0  0  0  0
 13 36  1  0  0  0  0
 13 37  1  0  0  0  0
 13 38  1  0  0  0  0
 14 39  1  0  0  0  0
 14 40  1  0  0  0  0
 14 41  1  0  0  0  0
 15 42  1  0  0  0  0
 15 43  1  0  0  0  0
 15 44  1  0  0  0  0
 16 45  1  0  0  0  0
 16 46  1  0  0  0  0
 16 47  1  0  0  0  0
 20 48  1  0  0  0  0
M  END
> <id>
EN300-27736036

> <smiles>
CC(C)(C)OC(=O)NC1=C(Cl)N(C(=O)OC(C)(C)C)C=2C=CC=CC12

> <MDLNUMBER>
MFCD33550445

> <IUPAC Name>
tert-butyl 3-{[(tert-butoxy)carbonyl]amino}-2-chloro-1H-indole-1-carboxylate

> <CAS>
2624122-31-0

> <Purity>
95

> <URL>
https://www.enaminestore.com/catalog/EN300-27736036

> <ROCS_ShapeQuery>
_x0404_0B

> <ROCS_TanimotoCombo>
0.444 

> <ROCS_ShapeTanimoto>
0.375 

> <ROCS_ColorTanimoto>
0.069 

> <ROCS_RefTversky>
0.331 

> <ROCS_RefColorTversky>
0.074 

> <ROCS_RefTverskyCombo>
0.404 

> <ROCS_FitTversky>
1.556 

> <ROCS_FitColorTversky>
0.508 

> <ROCS_FitTverskyCombo>
2.065 

> <ROCS_ColorScore>
-5.310

> <ROCS_Overlap>
2210.513

> <ROCS_Rank>
155                 

$$$$
untitled-dbase-15371_456
  -OEChem-08222312023D

 42 44  0     0  0  0  0  0  0999 V2000
   -9.1372    2.6033   -8.9965 C   0  0  0  0  0  0  0  0  0  0  0  0
   -8.8996    6.0465   -6.9538 C   0  0  0  0  0  0  0  0  0  0  0  0
   -9.0380    3.9383   -8.5626 C   0  0  0  0  0  0  0  0  0  0  0  0
   -9.0722    3.8509   -7.1819 C   0  0  0  0  0  0  0  0  0  0  0  0
   -8.9241    5.2106   -9.1129 C   0  0  0  0  0  0  0  0  0  0  0  0
   -8.5431    5.9158  -14.7314 C   0  0  0  0  0  0  0  0  0  0  0  0
   -8.3154    4.3581  -11.3660 C   0  0  0  0  0  0  0  0  0  0  0  0
   -9.4319    6.5996  -11.1145 C   0  0  0  0  0  0  0  0  0  0  0  0
   -8.9103    4.4494  -12.7694 C   0  0  0  0  0  0  0  0  0  0  0  0
   -8.7166    6.9078  -12.4292 C   0  0  0  0  0  0  0  0  0  0  0  0
   -7.0441    5.3968  -17.1120 C   0  0  0  0  0  0  0  0  0  0  0  0
   -8.4634    3.3365  -17.3358 C   0  0  0  0  0  0  0  0  0  0  0  0
   -9.5352    5.6070  -17.4032 C   0  0  0  0  0  0  0  0  0  0  0  0
   -8.4039    4.7689  -16.8095 C   0  0  0  0  0  0  0  0  0  0  0  0
   -9.2273    1.7360   -7.9822 N   0  0  0  0  0  0  0  0  0  0  0  0
   -9.0073    4.8662   -6.3062 N   0  0  0  0  0  0  0  0  0  0  0  0
   -8.8542    6.2818   -8.2868 N   0  0  0  0  0  0  0  0  0  0  0  0
   -9.1850    2.5237   -6.8917 N   0  0  0  0  0  0  0  0  0  0  0  0
   -8.8820    5.3913  -10.4935 N   0  0  0  0  0  0  0  0  0  0  0  0
   -8.7238    5.7736  -13.3531 N   0  0  0  0  0  0  0  0  0  0  0  0
   -8.3797    6.9929  -15.3013 O   0  0  0  0  0  0  0  0  0  0  0  0
   -8.5745    4.7139  -15.3887 O   0  0  0  0  0  0  0  0  0  0  0  0
   -9.1479    2.2213  -10.0074 H   0  0  0  0  0  0  0  0  0  0  0  0
   -8.8415    6.9261   -6.3216 H   0  0  0  0  0  0  0  0  0  0  0  0
   -8.5093    3.3560  -10.9632 H   0  0  0  0  0  0  0  0  0  0  0  0
   -7.2267    4.4833  -11.4066 H   0  0  0  0  0  0  0  0  0  0  0  0
   -9.3150    7.4530  -10.4357 H   0  0  0  0  0  0  0  0  0  0  0  0
  -10.5060    6.4675  -11.2971 H   0  0  0  0  0  0  0  0  0  0  0  0
   -8.4572    3.6920  -13.4183 H   0  0  0  0  0  0  0  0  0  0  0  0
   -9.9888    4.2511  -12.7461 H   0  0  0  0  0  0  0  0  0  0  0  0
   -9.1846    7.7740  -12.9094 H   0  0  0  0  0  0  0  0  0  0  0  0
   -7.6671    7.1667  -12.2436 H   0  0  0  0  0  0  0  0  0  0  0  0
   -6.9974    6.4250  -16.7357 H   0  0  0  0  0  0  0  0  0  0  0  0
   -6.2264    4.8244  -16.6620 H   0  0  0  0  0  0  0  0  0  0  0  0
   -6.8720    5.4550  -18.1928 H   0  0  0  0  0  0  0  0  0  0  0  0
   -9.4374    2.8821  -17.1210 H   0  0  0  0  0  0  0  0  0  0  0  0
   -7.7138    2.7078  -16.8420 H   0  0  0  0  0  0  0  0  0  0  0  0
   -8.2926    3.2958  -18.4164 H   0  0  0  0  0  0  0  0  0  0  0  0
  -10.5107    5.1568  -17.1864 H   0  0  0  0  0  0  0  0  0  0  0  0
   -9.5306    6.6282  -17.0086 H   0  0  0  0  0  0  0  0  0  0  0  0
   -9.4528    5.6552  -18.4951 H   0  0  0  0  0  0  0  0  0  0  0  0
   -9.2384    2.0872   -5.9799 H   0  0  0  0  0  0  0  0  0  0  0  0
  1  3  1  0  0  0  0
  1 15  2  0  0  0  0
  2 16  2  0  0  0  0
  2 17  1  0  0  0  0
  3  4  2  0  0  0  0
  3  5  1  0  0  0  0
  4 16  1  0  0  0  0
  4 18  1  0  0  0  0
  5 17  2  0  0  0  0
  5 19  1  0  0  0  0
  6 20  1  0  0  0  0
  6 21  2  0  0  0  0
  6 22  1  0  0  0  0
  7  9  1  0  0  0  0
  7 19  1  0  0  0  0
  8 10  1  0  0  0  0
  8 19  1  0  0  0  0
  9 20  1  0  0  0  0
 10 20  1  0  0  0  0
 11 14  1  0  0  0  0
 12 14  1  0  0  0  0
 13 14  1  0  0  0  0
 14 22  1  0  0  0  0
 15 18  1  0  0  0  0
  1 23  1  0  0  0  0
  2 24  1  0  0  0  0
  7 25  1  0  0  0  0
  7 26  1  0  0  0  0
  8 27  1  0  0  0  0
  8 28  1  0  0  0  0
  9 29  1  0  0  0  0
  9 30  1  0  0  0  0
 10 31  1  0  0  0  0
 10 32  1  0  0  0  0
 11 33  1  0  0  0  0
 11 34  1  0  0  0  0
 11 35  1  0  0  0  0
 12 36  1  0  0  0  0
 12 37  1  0  0  0  0
 12 38  1  0  0  0  0
 13 39  1  0  0  0  0
 13 40  1  0  0  0  0
 13 41  1  0  0  0  0
 18 42  1  0  0  0  0
M  END
> <id>
EN300-238662

> <smiles>
CC(C)(C)OC(=O)N1CCN(CC1)C=2N=CN=C3NN=CC23

> <MDLNUMBER>
MFCD09910378

> <IUPAC Name>
tert-butyl 4-{1H-pyrazolo[3,4-d]pyrimidin-4-yl}piperazine-1-carboxylate

> <CAS>
245450-02-6

> <URL>
https://www.enaminestore.com/catalog/EN300-238662

> <ROCS_ShapeQuery>
_x0404_0B

> <ROCS_TanimotoCombo>
0.444 

> <ROCS_ShapeTanimoto>
0.353 

> <ROCS_ColorTanimoto>
0.091 

> <ROCS_RefTversky>
0.312 

> <ROCS_RefColorTversky>
0.098 

> <ROCS_RefTverskyCombo>
0.410 

> <ROCS_FitTversky>
1.584 

> <ROCS_FitColorTversky>
0.572 

> <ROCS_FitTverskyCombo>
2.156 

> <ROCS_ColorScore>
-7.067

> <ROCS_Overlap>
2083.554

> <ROCS_Rank>
156                 

$$$$
untitled-dbase-99249_133
  -OEChem-08222312023D

 43 44  0     1  0  0  0  0  0999 V2000
   -8.7941    6.3160  -10.9689 C   0  0  0  0  0  0  0  0  0  0  0  0
   -8.7847    6.1002  -12.3514 C   0  0  0  0  0  0  0  0  0  0  0  0
   -9.0673    3.9632  -10.6059 C   0  0  0  0  0  0  0  0  0  0  0  0
   -8.9327    5.2482  -10.0951 C   0  0  0  0  0  0  0  0  0  0  0  0
   -9.0482    3.7309  -11.9947 C   0  0  0  0  0  0  0  0  0  0  0  0
   -8.9011    4.8090  -12.8969 C   0  0  0  0  0  0  0  0  0  0  0  0
   -8.9519    5.4733   -8.6590 C   0  0  0  0  0  0  0  0  0  0  0  0
   -8.5619    5.5540  -15.2761 C   0  0  0  0  0  0  0  0  0  0  0  0
   -9.2261    2.3055  -12.4547 C   0  0  0  0  0  0  0  0  0  0  0  0
   -9.3300    3.2296  -14.7723 C   0  0  0  0  0  0  0  0  0  0  0  0
   -8.7953    2.1098  -13.8956 C   0  0  1  0  0  0  0  0  0  0  0  0
   -6.4303    4.2136  -16.6531 C   0  0  0  0  0  0  0  0  0  0  0  0
   -7.8137    4.5341  -18.7250 C   0  0  0  0  0  0  0  0  0  0  0  0
   -6.9708    6.5348  -17.4620 C   0  0  0  0  0  0  0  0  0  0  0  0
   -9.1318    4.3927   -6.5391 C   0  0  0  0  0  0  0  0  0  0  0  0
   -7.4681    5.0945  -17.3470 C   0  0  0  0  0  0  0  0  0  0  0  0
   -8.9050    4.5692  -14.3231 N   0  0  0  0  0  0  0  0  0  0  0  0
   -8.8508    6.5849   -8.1225 O   0  0  0  0  0  0  0  0  0  0  0  0
   -8.1946    6.7010  -15.0359 O   0  0  0  0  0  0  0  0  0  0  0  0
   -7.3719    2.0637  -13.9670 O   0  0  0  0  0  0  0  0  0  0  0  0
   -9.0973    4.3015   -7.9674 O   0  0  0  0  0  0  0  0  0  0  0  0
   -8.6685    5.0875  -16.5648 O   0  0  0  0  0  0  0  0  0  0  0  0
   -8.7052    7.3318  -10.5909 H   0  0  0  0  0  0  0  0  0  0  0  0
   -8.7204    6.9897  -12.9671 H   0  0  0  0  0  0  0  0  0  0  0  0
   -9.1899    3.1240   -9.9233 H   0  0  0  0  0  0  0  0  0  0  0  0
   -8.6447    1.6382  -11.8067 H   0  0  0  0  0  0  0  0  0  0  0  0
  -10.2878    2.0501  -12.3501 H   0  0  0  0  0  0  0  0  0  0  0  0
   -8.9853    3.0550  -15.7965 H   0  0  0  0  0  0  0  0  0  0  0  0
  -10.4269    3.2280  -14.7874 H   0  0  0  0  0  0  0  0  0  0  0  0
   -9.1635    1.1417  -14.2540 H   0  0  0  0  0  0  0  0  0  0  0  0
   -6.1796    4.6125  -15.6636 H   0  0  0  0  0  0  0  0  0  0  0  0
   -6.7889    3.1861  -16.5331 H   0  0  0  0  0  0  0  0  0  0  0  0
   -5.4943    4.1892  -17.2228 H   0  0  0  0  0  0  0  0  0  0  0  0
   -8.5580    5.1631  -19.2265 H   0  0  0  0  0  0  0  0  0  0  0  0
   -8.2595    3.5365  -18.6400 H   0  0  0  0  0  0  0  0  0  0  0  0
   -6.9292    4.4651  -19.3665 H   0  0  0  0  0  0  0  0  0  0  0  0
   -7.7151    7.1669  -17.9598 H   0  0  0  0  0  0  0  0  0  0  0  0
   -6.7529    6.9659  -16.4795 H   0  0  0  0  0  0  0  0  0  0  0  0
   -6.0629    6.5859  -18.0738 H   0  0  0  0  0  0  0  0  0  0  0  0
   -9.2507    3.3938   -6.1122 H   0  0  0  0  0  0  0  0  0  0  0  0
   -9.9637    5.0324   -6.2339 H   0  0  0  0  0  0  0  0  0  0  0  0
   -8.1929    4.8271   -6.1878 H   0  0  0  0  0  0  0  0  0  0  0  0
   -7.0928    1.3149  -13.4181 H   0  0  0  0  0  0  0  0  0  0  0  0
  1  2  1  0  0  0  0
  1  4  2  0  0  0  0
  2  6  2  0  0  0  0
  3  4  1  0  0  0  0
  3  5  2  0  0  0  0
  4  7  1  0  0  0  0
  5  6  1  0  0  0  0
  5  9  1  0  0  0  0
  6 17  1  0  0  0  0
  7 18  2  0  0  0  0
  7 21  1  0  0  0  0
  8 17  1  0  0  0  0
  8 19  2  0  0  0  0
  8 22  1  0  0  0  0
  9 11  1  0  0  0  0
 10 11  1  0  0  0  0
 10 17  1  0  0  0  0
 11 20  1  0  0  0  0
 12 16  1  0  0  0  0
 13 16  1  0  0  0  0
 14 16  1  0  0  0  0
 15 21  1  0  0  0  0
 16 22  1  0  0  0  0
  1 23  1  0  0  0  0
  2 24  1  0  0  0  0
  3 25  1  0  0  0  0
  9 26  1  0  0  0  0
  9 27  1  0  0  0  0
 10 28  1  0  0  0  0
 10 29  1  0  0  0  0
 11 30  1  0  0  0  0
 12 31  1  0  0  0  0
 12 32  1  0  0  0  0
 12 33  1  0  0  0  0
 13 34  1  0  0  0  0
 13 35  1  0  0  0  0
 13 36  1  0  0  0  0
 14 37  1  0  0  0  0
 14 38  1  0  0  0  0
 14 39  1  0  0  0  0
 15 40  1  0  0  0  0
 15 41  1  0  0  0  0
 15 42  1  0  0  0  0
 20 43  1  0  0  0  0
M  END
> <id>
EN300-37100386

> <smiles>
COC(=O)C=1C=CC=2N(CC(O)CC2C1)C(=O)OC(C)(C)C

> <IUPAC Name>
1-tert-butyl 6-methyl 3-hydroxy-1,2,3,4-tetrahydroquinoline-1,6-dicarboxylate

> <CAS>
2757956-34-4

> <URL>
https://www.enaminestore.com/catalog/EN300-37100386

> <ROCS_ShapeQuery>
_x0404_0B

> <ROCS_TanimotoCombo>
0.444 

> <ROCS_ShapeTanimoto>
0.322 

> <ROCS_ColorTanimoto>
0.122 

> <ROCS_RefTversky>
0.290 

> <ROCS_RefColorTversky>
0.125 

> <ROCS_RefTverskyCombo>
0.415 

> <ROCS_FitTversky>
1.508 

> <ROCS_FitColorTversky>
0.862 

> <ROCS_FitTverskyCombo>
2.370 

> <ROCS_ColorScore>
-8.990

> <ROCS_Overlap>
1936.506

> <ROCS_Rank>
157                 

$$$$
untitled-dbase-115701_942
  -OEChem-08222312023D

 50 52  0     0  0  0  0  0  0999 V2000
   -8.9454    4.2763  -16.9509 C   0  0  0  0  0  0  0  0  0  0  0  0
   -9.4903    4.4078  -15.6821 C   0  0  0  0  0  0  0  0  0  0  0  0
   -7.8569    5.0679  -17.3299 C   0  0  0  0  0  0  0  0  0  0  0  0
   -8.9241    5.3403  -14.8354 C   0  0  0  0  0  0  0  0  0  0  0  0
   -7.3534    6.0056  -16.4146 C   0  0  0  0  0  0  0  0  0  0  0  0
   -8.5706    5.2587   -9.1952 C   0  0  0  0  0  0  0  0  0  0  0  0
   -7.2746    4.9403  -18.7135 C   0  0  0  0  0  0  0  0  0  0  0  0
   -5.8555    5.5040  -18.7728 C   0  0  0  0  0  0  0  0  0  0  0  0
   -9.4783    4.2103  -12.6076 C   0  0  0  0  0  0  0  0  0  0  0  0
   -8.7863    6.6772  -12.7074 C   0  0  0  0  0  0  0  0  0  0  0  0
   -5.8132    6.8860  -18.1326 C   0  0  0  0  0  0  0  0  0  0  0  0
   -8.4746    4.2435  -11.4579 C   0  0  0  0  0  0  0  0  0  0  0  0
   -9.0873    6.6587  -11.2131 C   0  0  0  0  0  0  0  0  0  0  0  0
   -9.4879    5.5155  -13.4357 C   0  0  0  0  0  0  0  0  0  0  0  0
  -10.5402    3.8122   -8.2424 C   0  0  0  0  0  0  0  0  0  0  0  0
   -9.0209    1.8121   -8.2605 C   0  0  0  0  0  0  0  0  0  0  0  0
   -8.7265    3.5905   -6.5116 C   0  0  0  0  0  0  0  0  0  0  0  0
   -9.1271    3.3053   -7.9583 C   0  0  0  0  0  0  0  0  0  0  0  0
   -7.8797    6.1322  -15.1694 N   0  0  0  0  0  0  0  0  0  0  0  0
   -6.2813    6.8179  -16.7633 N   0  0  0  0  0  0  0  0  0  0  0  0
   -8.7035    5.3925  -10.5809 N   0  0  0  0  0  0  0  0  0  0  0  0
   -8.7444    6.1707   -8.3893 O   0  0  0  0  0  0  0  0  0  0  0  0
   -8.2150    3.9873   -8.8269 O   0  0  0  0  0  0  0  0  0  0  0  0
   -9.3692    3.5542  -17.6436 H   0  0  0  0  0  0  0  0  0  0  0  0
  -10.3307    3.7944  -15.3764 H   0  0  0  0  0  0  0  0  0  0  0  0
   -7.2544    3.8885  -19.0217 H   0  0  0  0  0  0  0  0  0  0  0  0
   -7.9202    5.4839  -19.4140 H   0  0  0  0  0  0  0  0  0  0  0  0
   -5.1613    4.8336  -18.2497 H   0  0  0  0  0  0  0  0  0  0  0  0
   -5.5223    5.5598  -19.8151 H   0  0  0  0  0  0  0  0  0  0  0  0
   -9.2525    3.3483  -13.2630 H   0  0  0  0  0  0  0  0  0  0  0  0
  -10.4891    4.0187  -12.2050 H   0  0  0  0  0  0  0  0  0  0  0  0
   -9.1093    7.6369  -13.1345 H   0  0  0  0  0  0  0  0  0  0  0  0
   -7.6982    6.6215  -12.8610 H   0  0  0  0  0  0  0  0  0  0  0  0
   -4.7899    7.2757  -18.1477 H   0  0  0  0  0  0  0  0  0  0  0  0
   -6.4385    7.5865  -18.6988 H   0  0  0  0  0  0  0  0  0  0  0  0
   -8.5717    3.3386  -10.8401 H   0  0  0  0  0  0  0  0  0  0  0  0
   -7.4550    4.2433  -11.8628 H   0  0  0  0  0  0  0  0  0  0  0  0
   -8.5804    7.5032  -10.7203 H   0  0  0  0  0  0  0  0  0  0  0  0
  -10.1671    6.7945  -11.0357 H   0  0  0  0  0  0  0  0  0  0  0  0
  -10.5675    5.8190  -13.5877 H   0  0  0  0  0  0  0  0  0  0  0  0
  -10.6206    4.8837   -8.0267 H   0  0  0  0  0  0  0  0  0  0  0  0
  -10.8265    3.6452   -9.2859 H   0  0  0  0  0  0  0  0  0  0  0  0
  -11.2722    3.3115   -7.5983 H   0  0  0  0  0  0  0  0  0  0  0  0
   -8.0085    1.4441   -8.0580 H   0  0  0  0  0  0  0  0  0  0  0  0
   -9.2151    1.6137   -9.3207 H   0  0  0  0  0  0  0  0  0  0  0  0
   -9.7281    1.2277   -7.6631 H   0  0  0  0  0  0  0  0  0  0  0  0
   -7.7129    3.2270   -6.3075 H   0  0  0  0  0  0  0  0  0  0  0  0
   -8.7612    4.6615   -6.2871 H   0  0  0  0  0  0  0  0  0  0  0  0
   -9.3893    3.0667   -5.8132 H   0  0  0  0  0  0  0  0  0  0  0  0
   -5.9521    7.4931  -16.0843 H   0  0  0  0  0  0  0  0  0  0  0  0
  1  2  1  0  0  0  0
  1  3  2  0  0  0  0
  2  4  2  0  0  0  0
  3  5  1  0  0  0  0
  3  7  1  0  0  0  0
  4 14  1  0  0  0  0
  4 19  1  0  0  0  0
  5 19  2  0  0  0  0
  5 20  1  0  0  0  0
  6 21  1  0  0  0  0
  6 22  2  0  0  0  0
  6 23  1  0  0  0  0
  7  8  1  0  0  0  0
  8 11  1  0  0  0  0
  9 12  1  0  0  0  0
  9 14  1  0  0  0  0
 10 13  1  0  0  0  0
 10 14  1  0  0  0  0
 11 20  1  0  0  0  0
 12 21  1  0  0  0  0
 13 21  1  0  0  0  0
 15 18  1  0  0  0  0
 16 18  1  0  0  0  0
 17 18  1  0  0  0  0
 18 23  1  0  0  0  0
  1 24  1  0  0  0  0
  2 25  1  0  0  0  0
  7 26  1  0  0  0  0
  7 27  1  0  0  0  0
  8 28  1  0  0  0  0
  8 29  1  0  0  0  0
  9 30  1  0  0  0  0
  9 31  1  0  0  0  0
 10 32  1  0  0  0  0
 10 33  1  0  0  0  0
 11 34  1  0  0  0  0
 11 35  1  0  0  0  0
 12 36  1  0  0  0  0
 12 37  1  0  0  0  0
 13 38  1  0  0  0  0
 13 39  1  0  0  0  0
 14 40  1  0  0  0  0
 15 41  1  0  0  0  0
 15 42  1  0  0  0  0
 15 43  1  0  0  0  0
 16 44  1  0  0  0  0
 16 45  1  0  0  0  0
 16 46  1  0  0  0  0
 17 47  1  0  0  0  0
 17 48  1  0  0  0  0
 17 49  1  0  0  0  0
 20 50  1  0  0  0  0
M  END
> <id>
EN300-299271

> <smiles>
CC(C)(C)OC(=O)N1CCC(CC1)C=2C=CC=3CCCNC3N2

> <MDLNUMBER>
MFCD22690539

> <IUPAC Name>
tert-butyl 4-(5,6,7,8-tetrahydro-1,8-naphthyridin-2-yl)piperidine-1-carboxylate

> <CAS>
206989-63-1

> <Purity>
95

> <URL>
https://www.enaminestore.com/catalog/EN300-299271

> <ROCS_ShapeQuery>
_x0404_0B

> <ROCS_TanimotoCombo>
0.444 

> <ROCS_ShapeTanimoto>
0.378 

> <ROCS_ColorTanimoto>
0.065 

> <ROCS_RefTversky>
0.329 

> <ROCS_RefColorTversky>
0.070 

> <ROCS_RefTverskyCombo>
0.399 

> <ROCS_FitTversky>
1.659 

> <ROCS_FitColorTversky>
0.485 

> <ROCS_FitTverskyCombo>
2.144 

> <ROCS_ColorScore>
-5.062

> <ROCS_Overlap>
2196.354

> <ROCS_Rank>
158                 

$$$$
untitled-dbase-5663_1
  -OEChem-08222312023D

 41 44  0     1  0  0  0  0  0999 V2000
   -9.3581    4.1308  -16.3700 C   0  0  0  0  0  0  0  0  0  0  0  0
   -9.5144    4.4163  -15.0137 C   0  0  0  0  0  0  0  0  0  0  0  0
   -7.3988    5.5830  -15.0154 C   0  0  0  0  0  0  0  0  0  0  0  0
   -8.8649    4.6884  -10.6581 C   0  0  0  0  0  0  0  0  0  0  0  0
   -8.9508    3.8454   -9.5019 C   0  0  0  0  0  0  0  0  0  0  0  0
   -8.2221    4.5714  -17.0491 C   0  0  0  0  0  0  0  0  0  0  0  0
   -8.5348    5.1424  -14.3364 C   0  0  0  0  0  0  0  0  0  0  0  0
   -7.2425    5.2975  -16.3718 C   0  0  0  0  0  0  0  0  0  0  0  0
   -8.9983    4.5972   -8.3425 C   0  0  0  0  0  0  0  0  0  0  0  0
   -8.8276    6.0273  -10.3242 C   0  0  0  0  0  0  0  0  0  0  0  0
   -8.8050    4.3170  -12.0669 C   0  0  0  0  0  0  0  0  0  0  0  0
   -8.7081    6.7630  -12.4360 C   0  0  0  0  0  0  0  0  0  0  0  0
   -9.0213    2.3475   -9.4697 C   0  0  0  0  0  0  0  0  0  0  0  0
   -9.0848    4.0445   -6.9532 C   0  0  0  0  0  0  0  0  0  0  0  0
   -8.7684    1.7821   -8.0628 C   0  0  0  0  0  0  0  0  0  0  0  0
   -9.5380    2.5689   -6.9822 C   0  0  1  0  0  0  0  0  0  0  0  0
   -8.0927    4.2450  -18.5020 C   0  0  0  0  0  0  0  0  0  0  0  0
   -9.3551    1.9264   -5.6089 C   0  0  0  0  0  0  0  0  0  0  0  0
   -8.7601    7.0798  -11.1753 N   0  0  0  0  0  0  0  0  0  0  0  0
   -8.6955    5.4353  -12.9390 N   0  0  0  0  0  0  0  0  0  0  0  0
   -8.8087    3.1388  -12.4137 O   0  0  0  0  0  0  0  0  0  0  0  0
   -8.9071    6.2693   -8.6357 S   0  0  0  0  0  0  0  0  0  0  0  0
   -8.7606    8.1243  -13.5559 S   0  0  0  0  0  0  0  0  0  0  0  0
   -5.8235    5.8584  -17.1790 Cl  0  0  0  0  0  0  0  0  0  0  0  0
  -10.1274    3.5642  -16.8880 H   0  0  0  0  0  0  0  0  0  0  0  0
  -10.4034    4.0673  -14.4945 H   0  0  0  0  0  0  0  0  0  0  0  0
   -6.6369    6.1487  -14.4827 H   0  0  0  0  0  0  0  0  0  0  0  0
  -10.0181    2.0393   -9.8092 H   0  0  0  0  0  0  0  0  0  0  0  0
   -8.2895    1.9148  -10.1607 H   0  0  0  0  0  0  0  0  0  0  0  0
   -8.0962    4.1254   -6.4828 H   0  0  0  0  0  0  0  0  0  0  0  0
   -9.7867    4.6289   -6.3459 H   0  0  0  0  0  0  0  0  0  0  0  0
   -9.0568    0.7245   -8.0452 H   0  0  0  0  0  0  0  0  0  0  0  0
   -7.6929    1.8216   -7.8443 H   0  0  0  0  0  0  0  0  0  0  0  0
  -10.6075    2.5356   -7.2325 H   0  0  0  0  0  0  0  0  0  0  0  0
   -8.5428    5.0379  -19.1097 H   0  0  0  0  0  0  0  0  0  0  0  0
   -7.0403    4.1367  -18.7904 H   0  0  0  0  0  0  0  0  0  0  0  0
   -8.5891    3.2964  -18.7395 H   0  0  0  0  0  0  0  0  0  0  0  0
   -8.3026    1.9435   -5.3306 H   0  0  0  0  0  0  0  0  0  0  0  0
   -9.7002    0.8941   -5.6354 H   0  0  0  0  0  0  0  0  0  0  0  0
   -9.9298    2.4757   -4.8649 H   0  0  0  0  0  0  0  0  0  0  0  0
   -8.8423    9.0777  -12.6236 H   0  0  0  0  0  0  0  0  0  0  0  0
  1  2  1  0  0  0  0
  1  6  2  0  0  0  0
  2  7  2  0  0  0  0
  3  7  1  0  0  0  0
  3  8  2  0  0  0  0
  4  5  1  0  0  0  0
  4 10  2  0  0  0  0
  4 11  1  0  0  0  0
  5  9  2  0  0  0  0
  5 13  1  0  0  0  0
  6  8  1  0  0  0  0
  6 17  1  0  0  0  0
  7 20  1  0  0  0  0
  8 24  1  0  0  0  0
  9 14  1  0  0  0  0
  9 22  1  0  0  0  0
 10 19  1  0  0  0  0
 10 22  1  0  0  0  0
 11 20  1  0  0  0  0
 11 21  2  0  0  0  0
 12 19  2  0  0  0  0
 12 20  1  0  0  0  0
 12 23  1  0  0  0  0
 13 15  1  0  0  0  0
 14 16  1  0  0  0  0
 15 16  1  0  0  0  0
 16 18  1  0  0  0  0
  1 25  1  0  0  0  0
  2 26  1  0  0  0  0
  3 27  1  0  0  0  0
 13 28  1  0  0  0  0
 13 29  1  0  0  0  0
 14 30  1  0  0  0  0
 14 31  1  0  0  0  0
 15 32  1  0  0  0  0
 15 33  1  0  0  0  0
 16 34  1  0  0  0  0
 17 35  1  0  0  0  0
 17 36  1  0  0  0  0
 17 37  1  0  0  0  0
 18 38  1  0  0  0  0
 18 39  1  0  0  0  0
 18 40  1  0  0  0  0
 23 41  1  0  0  0  0
M  END
> <id>
EN300-03372

> <smiles>
CC1CCC2=C(C1)SC=3N=C(S)N(C=4C=CC(C)=C(Cl)C4)C(=O)C23

> <MDLNUMBER>
MFCD03479182

> <IUPAC Name>
4-(3-chloro-4-methylphenyl)-11-methyl-5-sulfanyl-8-thia-4,6-diazatricyclo[7.4.0.0,2,7]trideca-1(9),2(7),5-trien-3-one

> <CAS>
519150-61-9

> <URL>
https://www.enaminestore.com/catalog/EN300-03372

> <ROCS_ShapeQuery>
_x0404_0B

> <ROCS_TanimotoCombo>
0.444 

> <ROCS_ShapeTanimoto>
0.379 

> <ROCS_ColorTanimoto>
0.064 

> <ROCS_RefTversky>
0.331 

> <ROCS_RefColorTversky>
0.069 

> <ROCS_RefTverskyCombo>
0.401 

> <ROCS_FitTversky>
1.617 

> <ROCS_FitColorTversky>
0.478 

> <ROCS_FitTverskyCombo>
2.096 

> <ROCS_ColorScore>
-5.000

> <ROCS_Overlap>
2212.232

> <ROCS_Rank>
159                 

$$$$
untitled-dbase-53562_2
  -OEChem-08222312023D

 51 53  0     1  0  0  0  0  0999 V2000
   -8.2767    5.0994  -14.2615 C   0  0  0  0  0  0  0  0  0  0  0  0
   -8.7208    3.2765   -6.6540 C   0  0  0  0  0  0  0  0  0  0  0  0
  -10.1998    3.3588   -7.0334 C   0  0  0  0  0  0  0  0  0  0  0  0
   -9.4969    6.5198  -11.0680 C   0  0  0  0  0  0  0  0  0  0  0  0
   -7.5842    3.8949   -8.8781 C   0  0  0  0  0  0  0  0  0  0  0  0
  -10.0528    4.0372   -9.5120 C   0  0  0  0  0  0  0  0  0  0  0  0
   -9.2188    6.7069  -12.5549 C   0  0  0  0  0  0  0  0  0  0  0  0
   -8.1929    4.6568  -11.8054 C   0  0  0  0  0  0  0  0  0  0  0  0
   -8.0277    2.7737   -7.9189 C   0  0  2  0  0  0  0  0  0  0  0  0
  -10.2483    2.9008   -8.4898 C   0  0  1  0  0  0  0  0  0  0  0  0
   -8.3712    5.5831  -10.5956 C   0  0  2  0  0  0  0  0  0  0  0  0
   -8.7380    4.8225   -9.3187 C   0  0  0  0  0  0  0  0  0  0  0  0
   -9.1780    4.4258  -16.8888 C   0  0  0  0  0  0  0  0  0  0  0  0
   -9.0220    6.8855  -17.3733 C   0  0  0  0  0  0  0  0  0  0  0  0
   -6.9556    5.5995  -16.7533 C   0  0  0  0  0  0  0  0  0  0  0  0
   -8.4634    5.7315  -16.5435 C   0  0  0  0  0  0  0  0  0  0  0  0
   -9.0877    2.0000   -8.5863 N   0  0  0  0  0  0  0  0  0  0  0  0
   -8.5514    5.4749  -12.9576 N   0  0  0  0  0  0  0  0  0  0  0  0
   -7.1375    6.3480  -10.3797 N   0  0  0  0  0  0  0  0  0  0  0  0
   -7.7120    4.0539  -14.5747 O   0  0  0  0  0  0  0  0  0  0  0  0
   -8.9595    5.8092   -8.3044 O   0  0  0  0  0  0  0  0  0  0  0  0
   -8.7072    6.0337  -15.1652 O   0  0  0  0  0  0  0  0  0  0  0  0
   -8.3260    4.2336   -6.2999 H   0  0  0  0  0  0  0  0  0  0  0  0
   -8.5998    2.5511   -5.8400 H   0  0  0  0  0  0  0  0  0  0  0  0
  -10.7716    2.6712   -6.3980 H   0  0  0  0  0  0  0  0  0  0  0  0
  -10.6131    4.3612   -6.8860 H   0  0  0  0  0  0  0  0  0  0  0  0
   -9.4287    7.4956  -10.5674 H   0  0  0  0  0  0  0  0  0  0  0  0
  -10.4993    6.1182  -10.8815 H   0  0  0  0  0  0  0  0  0  0  0  0
   -6.7982    4.4860   -8.3900 H   0  0  0  0  0  0  0  0  0  0  0  0
   -7.1291    3.4264   -9.7619 H   0  0  0  0  0  0  0  0  0  0  0  0
  -10.0735    3.5960  -10.5183 H   0  0  0  0  0  0  0  0  0  0  0  0
  -10.9107    4.7193   -9.4479 H   0  0  0  0  0  0  0  0  0  0  0  0
  -10.1420    6.7981  -13.1359 H   0  0  0  0  0  0  0  0  0  0  0  0
   -8.5847    7.5735  -12.7609 H   0  0  0  0  0  0  0  0  0  0  0  0
   -7.1468    4.3551  -11.9490 H   0  0  0  0  0  0  0  0  0  0  0  0
   -8.8054    3.7481  -11.7684 H   0  0  0  0  0  0  0  0  0  0  0  0
   -7.1719    2.1364   -7.6753 H   0  0  0  0  0  0  0  0  0  0  0  0
  -11.1788    2.3660   -8.7056 H   0  0  0  0  0  0  0  0  0  0  0  0
   -8.7799    3.5950  -16.2953 H   0  0  0  0  0  0  0  0  0  0  0  0
  -10.2558    4.4962  -16.7094 H   0  0  0  0  0  0  0  0  0  0  0  0
   -9.0187    4.1590  -17.9398 H   0  0  0  0  0  0  0  0  0  0  0  0
   -8.5121    7.8244  -17.1288 H   0  0  0  0  0  0  0  0  0  0  0  0
  -10.0841    7.0451  -17.1548 H   0  0  0  0  0  0  0  0  0  0  0  0
   -8.9128    6.7011  -18.4469 H   0  0  0  0  0  0  0  0  0  0  0  0
   -6.4428    6.5359  -16.5057 H   0  0  0  0  0  0  0  0  0  0  0  0
   -6.5313    4.7998  -16.1375 H   0  0  0  0  0  0  0  0  0  0  0  0
   -6.7253    5.3893  -17.8040 H   0  0  0  0  0  0  0  0  0  0  0  0
   -8.8486    1.8162   -9.5595 H   0  0  0  0  0  0  0  0  0  0  0  0
   -6.8815    6.7751  -11.2386 H   0  0  0  0  0  0  0  0  0  0  0  0
   -7.3154    7.0356   -9.6860 H   0  0  0  0  0  0  0  0  0  0  0  0
   -8.1291    6.2994   -8.2177 H   0  0  0  0  0  0  0  0  0  0  0  0
  1 18  1  0  0  0  0
  1 20  2  0  0  0  0
  1 22  1  0  0  0  0
  2  3  1  0  0  0  0
  2  9  1  0  0  0  0
  3 10  1  0  0  0  0
  4  7  1  0  0  0  0
  4 11  1  0  0  0  0
  5  9  1  0  0  0  0
  5 12  1  0  0  0  0
  6 10  1  0  0  0  0
  6 12  1  0  0  0  0
  7 18  1  0  0  0  0
  8 11  1  0  0  0  0
  8 18  1  0  0  0  0
  9 17  1  0  0  0  0
 10 17  1  0  0  0  0
 11 12  1  0  0  0  0
 11 19  1  0  0  0  0
 12 21  1  0  0  0  0
 13 16  1  0  0  0  0
 14 16  1  0  0  0  0
 15 16  1  0  0  0  0
 16 22  1  0  0  0  0
  2 23  1  0  0  0  0
  2 24  1  0  0  0  0
  3 25  1  0  0  0  0
  3 26  1  0  0  0  0
  4 27  1  0  0  0  0
  4 28  1  0  0  0  0
  5 29  1  0  0  0  0
  5 30  1  0  0  0  0
  6 31  1  0  0  0  0
  6 32  1  0  0  0  0
  7 33  1  0  0  0  0
  7 34  1  0  0  0  0
  8 35  1  0  0  0  0
  8 36  1  0  0  0  0
  9 37  1  0  0  0  0
 10 38  1  0  0  0  0
 13 39  1  0  0  0  0
 13 40  1  0  0  0  0
 13 41  1  0  0  0  0
 14 42  1  0  0  0  0
 14 43  1  0  0  0  0
 14 44  1  0  0  0  0
 15 45  1  0  0  0  0
 15 46  1  0  0  0  0
 15 47  1  0  0  0  0
 17 48  1  0  0  0  0
 19 49  1  0  0  0  0
 19 50  1  0  0  0  0
 21 51  1  0  0  0  0
M  END
> <id>
EN300-1643315

> <smiles>
CC(C)(C)OC(=O)N1CCC(N)(C1)C2(O)CC3CCC(C2)N3

> <IUPAC Name>
tert-butyl 3-amino-3-{3-hydroxy-8-azabicyclo[3.2.1]octan-3-yl}pyrrolidine-1-carboxylate

> <CAS>
2171785-66-1

> <URL>
https://www.enaminestore.com/catalog/EN300-1643315

> <ROCS_ShapeQuery>
_x0404_0B

> <ROCS_TanimotoCombo>
0.444 

> <ROCS_ShapeTanimoto>
0.330 

> <ROCS_ColorTanimoto>
0.114 

> <ROCS_RefTversky>
0.296 

> <ROCS_RefColorTversky>
0.127 

> <ROCS_RefTverskyCombo>
0.423 

> <ROCS_FitTversky>
1.533 

> <ROCS_FitColorTversky>
0.518 

> <ROCS_FitTverskyCombo>
2.051 

> <ROCS_ColorScore>
-9.228

> <ROCS_Overlap>
1975.038

> <ROCS_Rank>
160                 

$$$$
untitled-dbase-124477_0
  -OEChem-08222312023D

 32 35  0     0  0  0  0  0  0999 V2000
   -7.9861    5.2616  -18.9042 C   0  0  0  0  0  0  0  0  0  0  0  0
   -9.1612    4.5235  -18.9929 C   0  0  0  0  0  0  0  0  0  0  0  0
   -8.7825    3.6734   -9.6838 C   0  0  0  0  0  0  0  0  0  0  0  0
   -7.5296    5.7244  -17.6666 C   0  0  0  0  0  0  0  0  0  0  0  0
   -8.7829    3.9754   -8.3215 C   0  0  0  0  0  0  0  0  0  0  0  0
   -9.9102    4.2284  -17.8510 C   0  0  0  0  0  0  0  0  0  0  0  0
   -8.8433    6.3362   -8.8369 C   0  0  0  0  0  0  0  0  0  0  0  0
   -8.8127    4.7101  -10.6205 C   0  0  0  0  0  0  0  0  0  0  0  0
   -8.2675    5.4403  -16.4970 C   0  0  0  0  0  0  0  0  0  0  0  0
   -8.8429    6.0358  -10.1997 C   0  0  0  0  0  0  0  0  0  0  0  0
   -8.8133    5.3046   -7.8985 C   0  0  0  0  0  0  0  0  0  0  0  0
   -9.4459    4.6965  -16.6112 C   0  0  0  0  0  0  0  0  0  0  0  0
   -8.8495    5.3926  -14.3696 C   0  0  0  0  0  0  0  0  0  0  0  0
   -8.8135    4.4222  -12.0624 C   0  0  0  0  0  0  0  0  0  0  0  0
   -8.8468    5.5977  -12.9787 C   0  0  0  0  0  0  0  0  0  0  0  0
   -8.8735    6.8304  -12.4316 C   0  0  0  0  0  0  0  0  0  0  0  0
   -7.9394    5.8318  -15.2072 N   0  0  0  0  0  0  0  0  0  0  0  0
   -8.9053    7.9820  -13.1779 N   0  0  0  0  0  0  0  0  0  0  0  0
   -8.7877    3.2709  -12.4792 O   0  0  0  0  0  0  0  0  0  0  0  0
   -8.8731    7.0904  -11.0727 O   0  0  0  0  0  0  0  0  0  0  0  0
   -8.8137    5.5949   -6.5685 O   0  0  0  0  0  0  0  0  0  0  0  0
  -10.1407    4.4973  -15.0459 S   0  0  0  0  0  0  0  0  0  0  0  0
   -7.4167    5.4815  -19.8031 H   0  0  0  0  0  0  0  0  0  0  0  0
   -9.5030    4.1707  -19.9625 H   0  0  0  0  0  0  0  0  0  0  0  0
   -8.7587    2.6322   -9.9930 H   0  0  0  0  0  0  0  0  0  0  0  0
   -6.6102    6.3002  -17.6089 H   0  0  0  0  0  0  0  0  0  0  0  0
   -8.7595    3.1692   -7.5932 H   0  0  0  0  0  0  0  0  0  0  0  0
  -10.8268    3.6516  -17.9279 H   0  0  0  0  0  0  0  0  0  0  0  0
   -8.8664    7.3713   -8.5054 H   0  0  0  0  0  0  0  0  0  0  0  0
   -8.9237    8.8511  -12.6983 H   0  0  0  0  0  0  0  0  0  0  0  0
   -8.9088    7.8999  -14.1672 H   0  0  0  0  0  0  0  0  0  0  0  0
   -8.7910    4.7775   -6.0460 H   0  0  0  0  0  0  0  0  0  0  0  0
  1  2  2  0  0  0  0
  1  4  1  0  0  0  0
  2  6  1  0  0  0  0
  3  5  1  0  0  0  0
  3  8  2  0  0  0  0
  4  9  2  0  0  0  0
  5 11  2  0  0  0  0
  6 12  2  0  0  0  0
  7 10  2  0  0  0  0
  7 11  1  0  0  0  0
  8 10  1  0  0  0  0
  8 14  1  0  0  0  0
  9 12  1  0  0  0  0
  9 17  1  0  0  0  0
 10 20  1  0  0  0  0
 11 21  1  0  0  0  0
 12 22  1  0  0  0  0
 13 15  1  0  0  0  0
 13 17  2  0  0  0  0
 13 22  1  0  0  0  0
 14 15  1  0  0  0  0
 14 19  2  0  0  0  0
 15 16  2  0  0  0  0
 16 18  1  0  0  0  0
 16 20  1  0  0  0  0
  1 23  1  0  0  0  0
  2 24  1  0  0  0  0
  3 25  1  0  0  0  0
  4 26  1  0  0  0  0
  5 27  1  0  0  0  0
  6 28  1  0  0  0  0
  7 29  1  0  0  0  0
 18 30  1  0  0  0  0
 18 31  1  0  0  0  0
 21 32  1  0  0  0  0
M  END
> <id>
EN300-18325117

> <smiles>
NC=1OC=2C=C(O)C=CC2C(=O)C1C3=NC=4C=CC=CC4S3

> <MDLNUMBER>
MFCD03146340

> <IUPAC Name>
2-amino-3-(1,3-benzothiazol-2-yl)-7-hydroxy-4H-chromen-4-one

> <CAS>
384361-22-2

> <Purity>
95

> <URL>
https://www.enaminestore.com/catalog/EN300-18325117

> <ROCS_ShapeQuery>
_x0404_0B

> <ROCS_TanimotoCombo>
0.444 

> <ROCS_ShapeTanimoto>
0.368 

> <ROCS_ColorTanimoto>
0.076 

> <ROCS_RefTversky>
0.322 

> <ROCS_RefColorTversky>
0.084 

> <ROCS_RefTverskyCombo>
0.407 

> <ROCS_FitTversky>
1.623 

> <ROCS_FitColorTversky>
0.427 

> <ROCS_FitTverskyCombo>
2.049 

> <ROCS_ColorScore>
-6.083

> <ROCS_Overlap>
2152.956

> <ROCS_Rank>
161                 

$$$$
untitled-dbase-81710_90
  -OEChem-08222312023D

 35 37  0     1  0  0  0  0  0999 V2000
   -7.3771    5.8375  -14.9720 C   0  0  0  0  0  0  0  0  0  0  0  0
   -7.0022    5.6612  -16.3039 C   0  0  0  0  0  0  0  0  0  0  0  0
   -9.6030    5.0573  -15.4953 C   0  0  0  0  0  0  0  0  0  0  0  0
   -9.0885    3.2443  -10.4618 C   0  0  0  0  0  0  0  0  0  0  0  0
   -9.1014    4.3355   -8.3097 C   0  0  0  0  0  0  0  0  0  0  0  0
   -8.6775    5.5355  -14.5677 C   0  0  0  0  0  0  0  0  0  0  0  0
   -8.8886    5.6579  -10.3347 C   0  0  0  0  0  0  0  0  0  0  0  0
   -8.9683    4.4851  -11.0934 C   0  0  0  0  0  0  0  0  0  0  0  0
   -7.9277    5.1830  -17.2315 C   0  0  0  0  0  0  0  0  0  0  0  0
   -9.2281    4.8810  -16.8272 C   0  0  0  0  0  0  0  0  0  0  0  0
   -9.1572    3.1707   -9.0714 C   0  0  0  0  0  0  0  0  0  0  0  0
   -8.9693    5.5741   -8.9382 C   0  0  0  0  0  0  0  0  0  0  0  0
   -8.7493    6.9958  -10.9950 C   0  0  0  0  0  0  0  0  0  0  0  0
   -9.0848    5.7248  -13.1181 C   0  0  2  0  0  0  0  0  0  0  0  0
   -8.2878    6.8493  -12.4425 C   0  0  1  0  0  0  0  0  0  0  0  0
   -8.9016    4.4605  -12.4608 O   0  0  0  0  0  0  0  0  0  0  0  0
   -7.5489    5.0153  -18.5294 O   0  0  0  0  0  0  0  0  0  0  0  0
  -10.1409    4.4141  -17.7242 O   0  0  0  0  0  0  0  0  0  0  0  0
   -9.2811    1.9616   -8.4589 O   0  0  0  0  0  0  0  0  0  0  0  0
   -8.9213    6.6969   -8.1649 O   0  0  0  0  0  0  0  0  0  0  0  0
   -8.5152    8.0800  -13.1216 O   0  0  0  0  0  0  0  0  0  0  0  0
   -6.6491    6.2090  -14.2559 H   0  0  0  0  0  0  0  0  0  0  0  0
   -5.9878    5.8988  -16.6121 H   0  0  0  0  0  0  0  0  0  0  0  0
  -10.6172    4.8206  -15.1826 H   0  0  0  0  0  0  0  0  0  0  0  0
   -9.1347    2.3335  -11.0542 H   0  0  0  0  0  0  0  0  0  0  0  0
   -9.1598    4.2789   -7.2256 H   0  0  0  0  0  0  0  0  0  0  0  0
   -9.7154    7.5159  -10.9554 H   0  0  0  0  0  0  0  0  0  0  0  0
   -8.0289    7.6271  -10.4600 H   0  0  0  0  0  0  0  0  0  0  0  0
  -10.1692    5.9667  -13.1277 H   0  0  0  0  0  0  0  0  0  0  0  0
   -7.2123    6.6254  -12.4668 H   0  0  0  0  0  0  0  0  0  0  0  0
   -6.6196    5.2693  -18.6427 H   0  0  0  0  0  0  0  0  0  0  0  0
   -9.7398    4.3434  -18.6046 H   0  0  0  0  0  0  0  0  0  0  0  0
   -9.3078    1.2511   -9.1195 H   0  0  0  0  0  0  0  0  0  0  0  0
   -8.9902    6.4593   -7.2276 H   0  0  0  0  0  0  0  0  0  0  0  0
   -7.9974    8.7543  -12.6544 H   0  0  0  0  0  0  0  0  0  0  0  0
  1  2  1  0  0  0  0
  1  6  2  0  0  0  0
  2  9  2  0  0  0  0
  3  6  1  0  0  0  0
  3 10  2  0  0  0  0
  4  8  2  0  0  0  0
  4 11  1  0  0  0  0
  5 11  2  0  0  0  0
  5 12  1  0  0  0  0
  6 14  1  6  0  0  0
  7  8  1  0  0  0  0
  7 12  2  0  0  0  0
  7 13  1  0  0  0  0
  8 16  1  0  0  0  0
  9 10  1  0  0  0  0
  9 17  1  0  0  0  0
 10 18  1  0  0  0  0
 11 19  1  0  0  0  0
 12 20  1  0  0  0  0
 13 15  1  0  0  0  0
 14 15  1  0  0  0  0
 14 16  1  0  0  0  0
 15 21  1  1  0  0  0
  1 22  1  0  0  0  0
  2 23  1  0  0  0  0
  3 24  1  0  0  0  0
  4 25  1  0  0  0  0
  5 26  1  0  0  0  0
 13 27  1  0  0  0  0
 13 28  1  0  0  0  0
 14 29  1  0  0  0  0
 15 30  1  0  0  0  0
 17 31  1  0  0  0  0
 18 32  1  0  0  0  0
 19 33  1  0  0  0  0
 20 34  1  0  0  0  0
 21 35  1  0  0  0  0
M  END
> <id>
EN300-6498629

> <smiles>
O[C@H]1CC=2C(O)=CC(O)=CC2O[C@@H]1C=3C=CC(O)=C(O)C3

> <MDLNUMBER>
MFCD00135995

> <IUPAC Name>
(2R,3S)-2-(3,4-dihydroxyphenyl)-3,4-dihydro-2H-1-benzopyran-3,5,7-triol

> <CAS>
154-23-4

> <URL>
https://www.enaminestore.com/catalog/EN300-6498629

> <ROCS_ShapeQuery>
_x0404_0B

> <ROCS_TanimotoCombo>
0.443 

> <ROCS_ShapeTanimoto>
0.369 

> <ROCS_ColorTanimoto>
0.074 

> <ROCS_RefTversky>
0.321 

> <ROCS_RefColorTversky>
0.085 

> <ROCS_RefTverskyCombo>
0.406 

> <ROCS_FitTversky>
1.694 

> <ROCS_FitColorTversky>
0.362 

> <ROCS_FitTverskyCombo>
2.056 

> <ROCS_ColorScore>
-6.188

> <ROCS_Overlap>
2140.232

> <ROCS_Rank>
162                 

$$$$
untitled-dbase-12168_1492
  -OEChem-08222312023D

 46 48  0     1  0  0  0  0  0999 V2000
   -6.7175    5.2576  -16.3322 C   0  0  0  0  0  0  0  0  0  0  0  0
   -7.1054    5.4869  -17.6544 C   0  0  0  0  0  0  0  0  0  0  0  0
   -8.9634    4.5136  -15.7573 C   0  0  0  0  0  0  0  0  0  0  0  0
   -7.6411    4.7736  -15.3890 C   0  0  0  0  0  0  0  0  0  0  0  0
   -8.4167    5.2221  -17.9921 C   0  0  0  0  0  0  0  0  0  0  0  0
   -9.3207    4.7484  -17.0690 C   0  0  0  0  0  0  0  0  0  0  0  0
   -8.5823    4.5861   -9.8270 C   0  0  0  0  0  0  0  0  0  0  0  0
   -7.3299    5.7971  -13.0768 C   0  0  0  0  0  0  0  0  0  0  0  0
   -8.4453    5.6966  -12.0404 C   0  0  0  0  0  0  0  0  0  0  0  0
   -7.8139    3.2842  -11.8268 C   0  0  0  0  0  0  0  0  0  0  0  0
  -10.3274    4.9587  -18.9728 C   0  0  0  0  0  0  0  0  0  0  0  0
   -7.1949    4.5322  -13.9528 C   0  0  1  0  0  0  0  0  0  0  0  0
   -7.9291    3.3167  -13.3486 C   0  0  1  0  0  0  0  0  0  0  0  0
  -10.6658    3.1436   -8.4993 C   0  0  0  0  0  0  0  0  0  0  0  0
   -8.8209    1.7647   -7.4973 C   0  0  0  0  0  0  0  0  0  0  0  0
   -8.9515    4.2245   -7.0069 C   0  0  0  0  0  0  0  0  0  0  0  0
   -9.2059    3.1359   -8.0485 C   0  0  0  0  0  0  0  0  0  0  0  0
   -8.2903    4.5148  -11.1930 N   0  0  0  0  0  0  0  0  0  0  0  0
   -8.9749    5.5997   -9.2526 O   0  0  0  0  0  0  0  0  0  0  0  0
   -8.9721    5.3833  -19.2240 O   0  0  0  0  0  0  0  0  0  0  0  0
  -10.5554    4.5539  -17.6073 O   0  0  0  0  0  0  0  0  0  0  0  0
   -7.3827    2.1093  -13.8791 O   0  0  0  0  0  0  0  0  0  0  0  0
   -8.3759    3.3916   -9.1873 O   0  0  0  0  0  0  0  0  0  0  0  0
   -5.6900    5.4559  -16.0369 H   0  0  0  0  0  0  0  0  0  0  0  0
   -6.3961    5.8590  -18.3847 H   0  0  0  0  0  0  0  0  0  0  0  0
   -9.6856    4.1388  -15.0399 H   0  0  0  0  0  0  0  0  0  0  0  0
   -7.5133    6.6806  -13.7161 H   0  0  0  0  0  0  0  0  0  0  0  0
   -6.3727    5.9986  -12.5639 H   0  0  0  0  0  0  0  0  0  0  0  0
   -8.4345    6.5752  -11.3791 H   0  0  0  0  0  0  0  0  0  0  0  0
   -9.4209    5.6870  -12.5444 H   0  0  0  0  0  0  0  0  0  0  0  0
   -8.3387    2.3973  -11.4364 H   0  0  0  0  0  0  0  0  0  0  0  0
   -6.7609    3.1481  -11.5220 H   0  0  0  0  0  0  0  0  0  0  0  0
  -11.0039    5.7879  -19.2100 H   0  0  0  0  0  0  0  0  0  0  0  0
  -10.5587    4.1147  -19.6323 H   0  0  0  0  0  0  0  0  0  0  0  0
   -6.1022    4.2636  -14.0325 H   0  0  0  0  0  0  0  0  0  0  0  0
   -9.0021    3.3430  -13.6309 H   0  0  0  0  0  0  0  0  0  0  0  0
  -10.9461    4.1261   -8.8956 H   0  0  0  0  0  0  0  0  0  0  0  0
  -10.8535    2.3906   -9.2717 H   0  0  0  0  0  0  0  0  0  0  0  0
  -11.3368    2.9480   -7.6550 H   0  0  0  0  0  0  0  0  0  0  0  0
   -7.7741    1.7546   -7.1726 H   0  0  0  0  0  0  0  0  0  0  0  0
   -8.9116    0.9935   -8.2708 H   0  0  0  0  0  0  0  0  0  0  0  0
   -9.4500    1.4795   -6.6479 H   0  0  0  0  0  0  0  0  0  0  0  0
   -7.9043    4.2192   -6.6834 H   0  0  0  0  0  0  0  0  0  0  0  0
   -9.1874    5.2196   -7.3977 H   0  0  0  0  0  0  0  0  0  0  0  0
   -9.5538    4.0517   -6.1077 H   0  0  0  0  0  0  0  0  0  0  0  0
   -6.4559    2.0813  -13.5976 H   0  0  0  0  0  0  0  0  0  0  0  0
  1  2  1  0  0  0  0
  1  4  2  0  0  0  0
  2  5  2  0  0  0  0
  3  4  1  0  0  0  0
  3  6  2  0  0  0  0
  4 12  1  0  0  0  0
  5  6  1  0  0  0  0
  5 20  1  0  0  0  0
  6 21  1  0  0  0  0
  7 18  1  0  0  0  0
  7 19  2  0  0  0  0
  7 23  1  0  0  0  0
  8  9  1  0  0  0  0
  8 12  1  0  0  0  0
  9 18  1  0  0  0  0
 10 13  1  0  0  0  0
 10 18  1  0  0  0  0
 11 20  1  0  0  0  0
 11 21  1  0  0  0  0
 12 13  1  0  0  0  0
 13 22  1  0  0  0  0
 14 17  1  0  0  0  0
 15 17  1  0  0  0  0
 16 17  1  0  0  0  0
 17 23  1  0  0  0  0
  1 24  1  0  0  0  0
  2 25  1  0  0  0  0
  3 26  1  0  0  0  0
  8 27  1  0  0  0  0
  8 28  1  0  0  0  0
  9 29  1  0  0  0  0
  9 30  1  0  0  0  0
 10 31  1  0  0  0  0
 10 32  1  0  0  0  0
 11 33  1  0  0  0  0
 11 34  1  0  0  0  0
 12 35  1  0  0  0  0
 13 36  1  0  0  0  0
 14 37  1  0  0  0  0
 14 38  1  0  0  0  0
 14 39  1  0  0  0  0
 15 40  1  0  0  0  0
 15 41  1  0  0  0  0
 15 42  1  0  0  0  0
 16 43  1  0  0  0  0
 16 44  1  0  0  0  0
 16 45  1  0  0  0  0
 22 46  1  0  0  0  0
M  END
> <id>
EN300-200808

> <smiles>
CC(C)(C)OC(=O)N1CCC(C(O)C1)C=2C=CC=3OCOC3C2

> <MDLNUMBER>
MFCD28348071

> <IUPAC Name>
tert-butyl 4-(1,3-dioxaindan-5-yl)-3-hydroxypiperidine-1-carboxylate

> <CAS>
1955493-75-0

> <URL>
https://www.enaminestore.com/catalog/EN300-200808

> <ROCS_ShapeQuery>
_x0404_0B

> <ROCS_TanimotoCombo>
0.443 

> <ROCS_ShapeTanimoto>
0.350 

> <ROCS_ColorTanimoto>
0.093 

> <ROCS_RefTversky>
0.311 

> <ROCS_RefColorTversky>
0.100 

> <ROCS_RefTverskyCombo>
0.411 

> <ROCS_FitTversky>
1.553 

> <ROCS_FitColorTversky>
0.585 

> <ROCS_FitTverskyCombo>
2.138 

> <ROCS_ColorScore>
-7.227

> <ROCS_Overlap>
2078.132

> <ROCS_Rank>
163                 

$$$$
untitled-dbase-180132_38
  -OEChem-08222312023D

 50 53  0     0  0  0  0  0  0999 V2000
   -8.9514    3.9672   -9.3834 B   0  0  0  0  0  0  0  0  0  0  0  0
   -8.8967    5.9246  -11.0436 C   0  0  0  0  0  0  0  0  0  0  0  0
   -8.6969    6.4496  -12.3183 C   0  0  0  0  0  0  0  0  0  0  0  0
   -8.3120    3.7265  -11.8614 C   0  0  0  0  0  0  0  0  0  0  0  0
   -8.7108    4.5627  -10.8164 C   0  0  0  0  0  0  0  0  0  0  0  0
   -8.0882    4.2425  -13.1435 C   0  0  0  0  0  0  0  0  0  0  0  0
   -8.3125    5.6074  -13.3640 C   0  0  0  0  0  0  0  0  0  0  0  0
   -9.5942    4.8927  -16.0899 C   0  0  0  0  0  0  0  0  0  0  0  0
   -7.5310    6.0673  -16.8897 C   0  0  0  0  0  0  0  0  0  0  0  0
   -7.2505    4.0547  -15.4022 C   0  0  0  0  0  0  0  0  0  0  0  0
   -9.8364    4.8485  -17.5989 C   0  0  0  0  0  0  0  0  0  0  0  0
   -7.5908    5.3008  -18.2097 C   0  0  0  0  0  0  0  0  0  0  0  0
   -8.1390    5.2774  -15.7167 C   0  0  0  0  0  0  0  0  0  0  0  0
   -9.2626    3.8726   -7.1165 C   0  0  0  0  0  0  0  0  0  0  0  0
   -9.3007    2.4297   -7.7223 C   0  0  0  0  0  0  0  0  0  0  0  0
  -10.6412    4.4474   -6.7201 C   0  0  0  0  0  0  0  0  0  0  0  0
   -8.3202    4.0389   -5.9160 C   0  0  0  0  0  0  0  0  0  0  0  0
  -10.5156    1.5904   -7.3025 C   0  0  0  0  0  0  0  0  0  0  0  0
   -8.0313    1.5854   -7.4698 C   0  0  0  0  0  0  0  0  0  0  0  0
   -7.6885    3.4153  -14.1807 N   0  0  0  0  0  0  0  0  0  0  0  0
   -8.7531    4.6988   -8.2125 O   0  0  0  0  0  0  0  0  0  0  0  0
   -9.3828    2.6587   -9.1660 O   0  0  0  0  0  0  0  0  0  0  0  0
   -8.1543    6.1909  -14.5965 O   0  0  0  0  0  0  0  0  0  0  0  0
   -8.6791    4.3785  -18.2775 O   0  0  0  0  0  0  0  0  0  0  0  0
   -9.1907    6.6016  -10.2440 H   0  0  0  0  0  0  0  0  0  0  0  0
   -8.8301    7.5145  -12.4890 H   0  0  0  0  0  0  0  0  0  0  0  0
   -8.1788    2.6572  -11.6963 H   0  0  0  0  0  0  0  0  0  0  0  0
  -10.3043    5.6062  -15.6411 H   0  0  0  0  0  0  0  0  0  0  0  0
   -9.8209    3.8988  -15.6694 H   0  0  0  0  0  0  0  0  0  0  0  0
   -6.4737    6.2879  -16.6632 H   0  0  0  0  0  0  0  0  0  0  0  0
   -8.0344    7.0366  -17.0325 H   0  0  0  0  0  0  0  0  0  0  0  0
   -7.3167    3.3217  -16.2164 H   0  0  0  0  0  0  0  0  0  0  0  0
   -6.1986    4.3461  -15.3076 H   0  0  0  0  0  0  0  0  0  0  0  0
  -10.6571    4.1587  -17.8186 H   0  0  0  0  0  0  0  0  0  0  0  0
  -10.1205    5.8316  -17.9906 H   0  0  0  0  0  0  0  0  0  0  0  0
   -7.6446    5.9896  -19.0745 H   0  0  0  0  0  0  0  0  0  0  0  0
   -6.6604    4.7200  -18.3401 H   0  0  0  0  0  0  0  0  0  0  0  0
  -10.5035    5.4420   -6.3149 H   0  0  0  0  0  0  0  0  0  0  0  0
  -11.0893    3.8023   -5.9748 H   0  0  0  0  0  0  0  0  0  0  0  0
  -11.2702    4.4895   -7.6005 H   0  0  0  0  0  0  0  0  0  0  0  0
   -8.3599    5.0660   -5.5653 H   0  0  0  0  0  0  0  0  0  0  0  0
   -7.3052    3.7974   -6.2176 H   0  0  0  0  0  0  0  0  0  0  0  0
   -8.6306    3.3706   -5.1181 H   0  0  0  0  0  0  0  0  0  0  0  0
  -10.4566    0.6112   -7.7686 H   0  0  0  0  0  0  0  0  0  0  0  0
  -11.4264    2.0893   -7.6206 H   0  0  0  0  0  0  0  0  0  0  0  0
  -10.5214    1.4784   -6.2222 H   0  0  0  0  0  0  0  0  0  0  0  0
   -8.1604    0.6124   -7.9269 H   0  0  0  0  0  0  0  0  0  0  0  0
   -7.8884    1.4773   -6.4020 H   0  0  0  0  0  0  0  0  0  0  0  0
   -7.1804    2.0913   -7.9086 H   0  0  0  0  0  0  0  0  0  0  0  0
   -7.9876    2.4450  -14.1968 H   0  0  0  0  0  0  0  0  0  0  0  0
  1  5  1  0  0  0  0
  1 21  1  0  0  0  0
  1 22  1  0  0  0  0
  2  3  1  0  0  0  0
  2  5  2  0  0  0  0
  3  7  2  0  0  0  0
  4  5  1  0  0  0  0
  4  6  2  0  0  0  0
  6  7  1  0  0  0  0
  6 20  1  0  0  0  0
  7 23  1  0  0  0  0
  8 11  1  0  0  0  0
  8 13  1  0  0  0  0
  9 12  1  0  0  0  0
  9 13  1  0  0  0  0
 10 13  1  0  0  0  0
 10 20  1  0  0  0  0
 11 24  1  0  0  0  0
 12 24  1  0  0  0  0
 13 23  1  0  0  0  0
 14 15  1  0  0  0  0
 14 16  1  0  0  0  0
 14 17  1  0  0  0  0
 14 21  1  0  0  0  0
 15 18  1  0  0  0  0
 15 19  1  0  0  0  0
 15 22  1  0  0  0  0
  2 25  1  0  0  0  0
  3 26  1  0  0  0  0
  4 27  1  0  0  0  0
  8 28  1  0  0  0  0
  8 29  1  0  0  0  0
  9 30  1  0  0  0  0
  9 31  1  0  0  0  0
 10 32  1  0  0  0  0
 10 33  1  0  0  0  0
 11 34  1  0  0  0  0
 11 35  1  0  0  0  0
 12 36  1  0  0  0  0
 12 37  1  0  0  0  0
 16 38  1  0  0  0  0
 16 39  1  0  0  0  0
 16 40  1  0  0  0  0
 17 41  1  0  0  0  0
 17 42  1  0  0  0  0
 17 43  1  0  0  0  0
 18 44  1  0  0  0  0
 18 45  1  0  0  0  0
 18 46  1  0  0  0  0
 19 47  1  0  0  0  0
 19 48  1  0  0  0  0
 19 49  1  0  0  0  0
 20 50  1  0  0  0  0
M  END
> <id>
EN300-45273877

> <smiles>
Cl.CC1(C)OB(OC1(C)C)C=2C=CC=3OC4(CCOCC4)CNC3C2

> <IUPAC Name>
6-(4,4,5,5-tetramethyl-1,3,2-dioxaborolan-2-yl)-3,4-dihydrospiro[1,4-benzoxazine-2,4'-oxane] hydrochloride

> <URL>
https://www.enaminestore.com/catalog/EN300-45273877

> <ROCS_ShapeQuery>
_x0404_0B

> <ROCS_TanimotoCombo>
0.443 

> <ROCS_ShapeTanimoto>
0.370 

> <ROCS_ColorTanimoto>
0.073 

> <ROCS_RefTversky>
0.326 

> <ROCS_RefColorTversky>
0.080 

> <ROCS_RefTverskyCombo>
0.406 

> <ROCS_FitTversky>
1.572 

> <ROCS_FitColorTversky>
0.468 

> <ROCS_FitTverskyCombo>
2.040 

> <ROCS_ColorScore>
-5.781

> <ROCS_Overlap>
2178.155

> <ROCS_Rank>
164                 

$$$$
untitled-dbase-111528_99
  -OEChem-08222312023D

 48 50  0     0  0  0  0  0  0999 V2000
   -9.4368    6.9816  -11.3245 C   0  0  0  0  0  0  0  0  0  0  0  0
   -9.1826    6.1532  -10.2221 C   0  0  0  0  0  0  0  0  0  0  0  0
   -9.1083    6.5703  -12.6199 C   0  0  0  0  0  0  0  0  0  0  0  0
   -8.5956    4.9003  -10.3999 C   0  0  0  0  0  0  0  0  0  0  0  0
   -8.2727    4.4998  -11.6872 C   0  0  0  0  0  0  0  0  0  0  0  0
   -8.5251    5.3232  -12.7865 C   0  0  0  0  0  0  0  0  0  0  0  0
   -8.1940    5.1901  -15.2576 C   0  0  0  0  0  0  0  0  0  0  0  0
   -7.6432    3.2080  -12.0985 C   0  0  0  0  0  0  0  0  0  0  0  0
   -9.0169    2.6420   -9.3205 C   0  0  0  0  0  0  0  0  0  0  0  0
   -8.7100    4.6829   -7.8737 C   0  0  0  0  0  0  0  0  0  0  0  0
   -7.5451    3.3651  -13.6197 C   0  0  0  0  0  0  0  0  0  0  0  0
   -8.7635    1.7865   -8.0789 C   0  0  0  0  0  0  0  0  0  0  0  0
   -8.4693    3.7451   -6.6904 C   0  0  0  0  0  0  0  0  0  0  0  0
   -8.3234    4.0083   -9.1995 C   0  0  0  0  0  0  0  0  0  0  0  0
   -7.1695    5.3432  -17.9267 C   0  0  0  0  0  0  0  0  0  0  0  0
   -8.5919    3.3259  -18.3922 C   0  0  0  0  0  0  0  0  0  0  0  0
   -9.6721    5.4848  -17.6991 C   0  0  0  0  0  0  0  0  0  0  0  0
   -8.4433    4.5893  -17.5473 C   0  0  0  0  0  0  0  0  0  0  0  0
   -9.1799    2.4771   -6.8579 N   0  0  0  0  0  0  0  0  0  0  0  0
   -8.1059    4.6845  -13.9685 N   0  0  0  0  0  0  0  0  0  0  0  0
   -8.1495    6.3766  -15.5698 O   0  0  0  0  0  0  0  0  0  0  0  0
   -8.3416    4.1830  -16.1777 O   0  0  0  0  0  0  0  0  0  0  0  0
   -9.8950    7.9551  -11.1692 H   0  0  0  0  0  0  0  0  0  0  0  0
   -9.4484    6.4994   -9.2264 H   0  0  0  0  0  0  0  0  0  0  0  0
   -9.3171    7.2339  -13.4499 H   0  0  0  0  0  0  0  0  0  0  0  0
   -6.6513    3.0944  -11.6506 H   0  0  0  0  0  0  0  0  0  0  0  0
   -8.2790    2.3585  -11.8312 H   0  0  0  0  0  0  0  0  0  0  0  0
   -8.6555    2.1132  -10.2106 H   0  0  0  0  0  0  0  0  0  0  0  0
  -10.0983    2.7779   -9.4549 H   0  0  0  0  0  0  0  0  0  0  0  0
   -9.7670    4.9802   -7.8943 H   0  0  0  0  0  0  0  0  0  0  0  0
   -8.1296    5.6031   -7.7359 H   0  0  0  0  0  0  0  0  0  0  0  0
   -6.5064    3.3182  -13.9668 H   0  0  0  0  0  0  0  0  0  0  0  0
   -8.1116    2.5881  -14.1459 H   0  0  0  0  0  0  0  0  0  0  0  0
   -9.3219    0.8478   -8.1631 H   0  0  0  0  0  0  0  0  0  0  0  0
   -7.7029    1.5160   -8.0115 H   0  0  0  0  0  0  0  0  0  0  0  0
   -7.3961    3.5573   -6.5648 H   0  0  0  0  0  0  0  0  0  0  0  0
   -8.8135    4.2258   -5.7681 H   0  0  0  0  0  0  0  0  0  0  0  0
   -7.2186    3.8325   -9.1860 H   0  0  0  0  0  0  0  0  0  0  0  0
   -7.0593    6.2508  -17.3224 H   0  0  0  0  0  0  0  0  0  0  0  0
   -6.2777    4.7232  -17.7889 H   0  0  0  0  0  0  0  0  0  0  0  0
   -7.2055    5.6704  -18.9721 H   0  0  0  0  0  0  0  0  0  0  0  0
   -9.5046    2.7818  -18.1233 H   0  0  0  0  0  0  0  0  0  0  0  0
   -7.7582    2.6371  -18.2142 H   0  0  0  0  0  0  0  0  0  0  0  0
   -8.6284    3.5571  -19.4617 H   0  0  0  0  0  0  0  0  0  0  0  0
  -10.5859    4.9443  -17.4270 H   0  0  0  0  0  0  0  0  0  0  0  0
   -9.5996    6.3789  -17.0713 H   0  0  0  0  0  0  0  0  0  0  0  0
   -9.7981    5.8002  -18.7411 H   0  0  0  0  0  0  0  0  0  0  0  0
  -10.1816    2.6645   -6.9098 H   0  0  0  0  0  0  0  0  0  0  0  0
  1  2  1  0  0  0  0
  1  3  2  0  0  0  0
  2  4  2  0  0  0  0
  3  6  1  0  0  0  0
  4  5  1  0  0  0  0
  4 14  1  0  0  0  0
  5  6  2  0  0  0  0
  5  8  1  0  0  0  0
  6 20  1  0  0  0  0
  7 20  1  0  0  0  0
  7 21  2  0  0  0  0
  7 22  1  0  0  0  0
  8 11  1  0  0  0  0
  9 12  1  0  0  0  0
  9 14  1  0  0  0  0
 10 13  1  0  0  0  0
 10 14  1  0  0  0  0
 11 20  1  0  0  0  0
 12 19  1  0  0  0  0
 13 19  1  0  0  0  0
 15 18  1  0  0  0  0
 16 18  1  0  0  0  0
 17 18  1  0  0  0  0
 18 22  1  0  0  0  0
  1 23  1  0  0  0  0
  2 24  1  0  0  0  0
  3 25  1  0  0  0  0
  8 26  1  0  0  0  0
  8 27  1  0  0  0  0
  9 28  1  0  0  0  0
  9 29  1  0  0  0  0
 10 30  1  0  0  0  0
 10 31  1  0  0  0  0
 11 32  1  0  0  0  0
 11 33  1  0  0  0  0
 12 34  1  0  0  0  0
 12 35  1  0  0  0  0
 13 36  1  0  0  0  0
 13 37  1  0  0  0  0
 14 38  1  0  0  0  0
 15 39  1  0  0  0  0
 15 40  1  0  0  0  0
 15 41  1  0  0  0  0
 16 42  1  0  0  0  0
 16 43  1  0  0  0  0
 16 44  1  0  0  0  0
 17 45  1  0  0  0  0
 17 46  1  0  0  0  0
 17 47  1  0  0  0  0
 19 48  1  0  0  0  0
M  END
> <id>
EN300-29694258

> <smiles>
CC(C)(C)OC(=O)N1CCC=2C1=CC=CC2C3CCNCC3

> <IUPAC Name>
tert-butyl 4-(piperidin-4-yl)-2,3-dihydro-1H-indole-1-carboxylate

> <URL>
https://www.enaminestore.com/catalog/EN300-29694258

> <ROCS_ShapeQuery>
_x0404_0B

> <ROCS_TanimotoCombo>
0.443 

> <ROCS_ShapeTanimoto>
0.356 

> <ROCS_ColorTanimoto>
0.088 

> <ROCS_RefTversky>
0.313 

> <ROCS_RefColorTversky>
0.092 

> <ROCS_RefTverskyCombo>
0.405 

> <ROCS_FitTversky>
1.625 

> <ROCS_FitColorTversky>
0.638 

> <ROCS_FitTverskyCombo>
2.263 

> <ROCS_ColorScore>
-6.662

> <ROCS_Overlap>
2087.366

> <ROCS_Rank>
165                 

$$$$
untitled-dbase-91003_2671
  -OEChem-08222312023D

 52 54  0     1  0  0  0  0  0999 V2000
   -8.5868    4.6246   -7.9032 C   0  0  0  0  0  0  0  0  0  0  0  0
   -8.6643    3.6697   -6.8955 C   0  0  0  0  0  0  0  0  0  0  0  0
   -9.3752    2.9904   -9.4409 C   0  0  0  0  0  0  0  0  0  0  0  0
   -8.9471    4.2865   -9.2028 C   0  0  0  0  0  0  0  0  0  0  0  0
   -9.1052    2.4012   -7.2367 C   0  0  0  0  0  0  0  0  0  0  0  0
   -8.5365    5.2859  -16.2565 C   0  0  0  0  0  0  0  0  0  0  0  0
  -10.2777    7.8583  -14.1137 C   0  0  0  0  0  0  0  0  0  0  0  0
   -7.5419    5.3747  -11.0813 C   0  0  0  0  0  0  0  0  0  0  0  0
  -10.1172    7.2707  -12.7088 C   0  0  0  0  0  0  0  0  0  0  0  0
   -7.8483    6.1333  -12.3732 C   0  0  0  0  0  0  0  0  0  0  0  0
   -9.8505    5.0424  -11.4844 C   0  0  0  0  0  0  0  0  0  0  0  0
   -9.2008    7.4062  -15.0863 C   0  0  0  0  0  0  0  0  0  0  0  0
   -9.5621    5.1748  -14.0019 C   0  0  0  0  0  0  0  0  0  0  0  0
   -8.8743    5.3061  -10.3252 C   0  0  1  0  0  0  0  0  0  0  0  0
   -9.3578    5.9174  -12.6684 C   0  0  1  0  0  0  0  0  0  0  0  0
   -8.5596    4.6392  -19.0431 C   0  0  0  0  0  0  0  0  0  0  0  0
   -7.1409    6.6902  -19.3424 C   0  0  0  0  0  0  0  0  0  0  0  0
   -6.2905    4.7718  -17.9624 C   0  0  0  0  0  0  0  0  0  0  0  0
   -7.5276    5.5590  -18.3922 C   0  0  0  0  0  0  0  0  0  0  0  0
   -9.4638    2.0356   -8.4879 N   0  0  0  0  0  0  0  0  0  0  0  0
   -9.0903    5.9468  -15.1548 N   0  0  0  0  0  0  0  0  0  0  0  0
   -8.4273    4.0647  -16.3494 O   0  0  0  0  0  0  0  0  0  0  0  0
   -9.1557    6.5939   -9.7705 O   0  0  0  0  0  0  0  0  0  0  0  0
   -8.1160    6.1539  -17.2301 O   0  0  0  0  0  0  0  0  0  0  0  0
   -9.2179    1.0813   -5.8759 Br  0  0  0  0  0  0  0  0  0  0  0  0
   -8.2450    5.6287   -7.6667 H   0  0  0  0  0  0  0  0  0  0  0  0
   -8.3841    3.9291   -5.8801 H   0  0  0  0  0  0  0  0  0  0  0  0
   -9.6703    2.6695  -10.4351 H   0  0  0  0  0  0  0  0  0  0  0  0
  -11.2718    7.5910  -14.5166 H   0  0  0  0  0  0  0  0  0  0  0  0
  -10.2733    8.9611  -14.0468 H   0  0  0  0  0  0  0  0  0  0  0  0
   -7.1619    4.3688  -11.3237 H   0  0  0  0  0  0  0  0  0  0  0  0
   -6.7592    5.8931  -10.5064 H   0  0  0  0  0  0  0  0  0  0  0  0
   -9.5786    8.0026  -12.0818 H   0  0  0  0  0  0  0  0  0  0  0  0
  -11.1129    7.1598  -12.2471 H   0  0  0  0  0  0  0  0  0  0  0  0
   -7.6304    7.2061  -12.2306 H   0  0  0  0  0  0  0  0  0  0  0  0
   -7.2027    5.7953  -13.2006 H   0  0  0  0  0  0  0  0  0  0  0  0
   -9.8574    3.9851  -11.7628 H   0  0  0  0  0  0  0  0  0  0  0  0
  -10.8694    5.3069  -11.1885 H   0  0  0  0  0  0  0  0  0  0  0  0
   -9.3965    7.8261  -16.0847 H   0  0  0  0  0  0  0  0  0  0  0  0
   -8.2153    7.7875  -14.7728 H   0  0  0  0  0  0  0  0  0  0  0  0
   -8.9902    4.2311  -14.0090 H   0  0  0  0  0  0  0  0  0  0  0  0
  -10.6164    4.8868  -14.1299 H   0  0  0  0  0  0  0  0  0  0  0  0
   -8.8398    3.8258  -18.3642 H   0  0  0  0  0  0  0  0  0  0  0  0
   -9.4661    5.1852  -19.3243 H   0  0  0  0  0  0  0  0  0  0  0  0
   -8.1489    4.1644  -19.9414 H   0  0  0  0  0  0  0  0  0  0  0  0
   -6.4005    7.3527  -18.8795 H   0  0  0  0  0  0  0  0  0  0  0  0
   -8.0095    7.3155  -19.5788 H   0  0  0  0  0  0  0  0  0  0  0  0
   -6.7248    6.3064  -20.2795 H   0  0  0  0  0  0  0  0  0  0  0  0
   -5.5500    5.4313  -17.4955 H   0  0  0  0  0  0  0  0  0  0  0  0
   -6.5439    3.9788  -17.2514 H   0  0  0  0  0  0  0  0  0  0  0  0
   -5.7970    4.3176  -18.8293 H   0  0  0  0  0  0  0  0  0  0  0  0
   -9.1044    7.2299  -10.5018 H   0  0  0  0  0  0  0  0  0  0  0  0
  1  2  1  0  0  0  0
  1  4  2  0  0  0  0
  2  5  2  0  0  0  0
  3  4  1  0  0  0  0
  3 20  2  0  0  0  0
  4 14  1  0  0  0  0
  5 20  1  0  0  0  0
  5 25  1  0  0  0  0
  6 21  1  0  0  0  0
  6 22  2  0  0  0  0
  6 24  1  0  0  0  0
  7  9  1  0  0  0  0
  7 12  1  0  0  0  0
  8 10  1  0  0  0  0
  8 14  1  0  0  0  0
  9 15  1  0  0  0  0
 10 15  1  0  0  0  0
 11 14  1  0  0  0  0
 11 15  1  0  0  0  0
 12 21  1  0  0  0  0
 13 15  1  0  0  0  0
 13 21  1  0  0  0  0
 14 23  1  0  0  0  0
 16 19  1  0  0  0  0
 17 19  1  0  0  0  0
 18 19  1  0  0  0  0
 19 24  1  0  0  0  0
  1 26  1  0  0  0  0
  2 27  1  0  0  0  0
  3 28  1  0  0  0  0
  7 29  1  0  0  0  0
  7 30  1  0  0  0  0
  8 31  1  0  0  0  0
  8 32  1  0  0  0  0
  9 33  1  0  0  0  0
  9 34  1  0  0  0  0
 10 35  1  0  0  0  0
 10 36  1  0  0  0  0
 11 37  1  0  0  0  0
 11 38  1  0  0  0  0
 12 39  1  0  0  0  0
 12 40  1  0  0  0  0
 13 41  1  0  0  0  0
 13 42  1  0  0  0  0
 16 43  1  0  0  0  0
 16 44  1  0  0  0  0
 16 45  1  0  0  0  0
 17 46  1  0  0  0  0
 17 47  1  0  0  0  0
 17 48  1  0  0  0  0
 18 49  1  0  0  0  0
 18 50  1  0  0  0  0
 18 51  1  0  0  0  0
 23 52  1  0  0  0  0
M  END
> <id>
EN300-7428801

> <smiles>
CC(C)(C)OC(=O)N1CCCC2(CCC(O)(C2)C=3C=CC(Br)=NC3)C1

> <IUPAC Name>
tert-butyl 2-(6-bromopyridin-3-yl)-2-hydroxy-7-azaspiro[4.5]decane-7-carboxylate

> <CAS>
2309460-36-2

> <URL>
https://www.enaminestore.com/catalog/EN300-7428801

> <ROCS_ShapeQuery>
_x0404_0B

> <ROCS_TanimotoCombo>
0.443 

> <ROCS_ShapeTanimoto>
0.382 

> <ROCS_ColorTanimoto>
0.061 

> <ROCS_RefTversky>
0.334 

> <ROCS_RefColorTversky>
0.067 

> <ROCS_RefTverskyCombo>
0.402 

> <ROCS_FitTversky>
1.599 

> <ROCS_FitColorTversky>
0.393 

> <ROCS_FitTverskyCombo>
1.992 

> <ROCS_ColorScore>
-4.845

> <ROCS_Overlap>
2234.489

> <ROCS_Rank>
166                 

$$$$
untitled-dbase-103798_98
  -OEChem-08222312023D

 38 42  0     1  0  0  0  0  0999 V2000
   -7.4456    5.8300  -17.1464 B   0  0  0  0  0  0  0  0  0  0  0  0
  -10.1864    4.9444  -13.9895 C   0  0  0  0  0  0  0  0  0  0  0  0
  -10.2430    4.4385  -15.2888 C   0  0  0  0  0  0  0  0  0  0  0  0
   -8.1843    6.2214  -14.5319 C   0  0  0  0  0  0  0  0  0  0  0  0
   -8.2394    5.7231  -15.8132 C   0  0  0  0  0  0  0  0  0  0  0  0
   -9.1647    5.8287  -13.6144 C   0  0  0  0  0  0  0  0  0  0  0  0
   -9.2670    4.8296  -16.1994 C   0  0  0  0  0  0  0  0  0  0  0  0
   -9.0342    2.1104   -7.8943 C   0  0  0  0  0  0  0  0  0  0  0  0
   -8.4153    3.0729   -7.1983 C   0  0  0  0  0  0  0  0  0  0  0  0
   -9.1238    6.3483  -12.2395 C   0  0  0  0  0  0  0  0  0  0  0  0
   -9.1839    4.3789  -17.6248 C   0  0  0  0  0  0  0  0  0  0  0  0
   -9.5065    4.0615  -11.1967 C   0  0  0  0  0  0  0  0  0  0  0  0
   -8.3865    5.7859   -9.9489 C   0  0  0  0  0  0  0  0  0  0  0  0
   -9.8037    2.8097   -8.9765 C   0  0  2  0  0  0  0  0  0  0  0  0
   -8.8000    4.3694   -7.8494 C   0  0  1  0  0  0  0  0  0  0  0  0
   -8.8235    3.3621  -10.0270 C   0  0  2  0  0  0  0  0  0  0  0  0
   -8.1002    4.4822   -9.2155 C   0  0  1  0  0  0  0  0  0  0  0  0
   -9.0049    5.4262  -11.2082 N   0  0  0  0  0  0  0  0  0  0  0  0
   -9.1881    7.5678  -12.0982 O   0  0  0  0  0  0  0  0  0  0  0  0
   -8.0128    5.0516  -18.1536 O   0  0  0  0  0  0  0  0  0  0  0  0
  -10.1508    4.0376   -8.2767 O   0  0  0  0  0  0  0  0  0  0  0  0
   -6.3285    6.5945  -17.3088 O   0  0  0  0  0  0  0  0  0  0  0  0
  -10.9444    4.6438  -13.2700 H   0  0  0  0  0  0  0  0  0  0  0  0
  -11.0336    3.7534  -15.5769 H   0  0  0  0  0  0  0  0  0  0  0  0
   -7.3949    6.9069  -14.2358 H   0  0  0  0  0  0  0  0  0  0  0  0
   -8.9430    1.0464   -7.7481 H   0  0  0  0  0  0  0  0  0  0  0  0
   -7.7271    2.9380   -6.3797 H   0  0  0  0  0  0  0  0  0  0  0  0
   -9.0366    3.2957  -17.7017 H   0  0  0  0  0  0  0  0  0  0  0  0
  -10.0624    4.6886  -18.2018 H   0  0  0  0  0  0  0  0  0  0  0  0
   -9.2026    3.6027  -12.1463 H   0  0  0  0  0  0  0  0  0  0  0  0
  -10.6004    4.0364  -11.1421 H   0  0  0  0  0  0  0  0  0  0  0  0
   -9.0158    6.4865   -9.3878 H   0  0  0  0  0  0  0  0  0  0  0  0
   -7.4482    6.3009  -10.1920 H   0  0  0  0  0  0  0  0  0  0  0  0
  -10.6921    2.2909   -9.3375 H   0  0  0  0  0  0  0  0  0  0  0  0
   -8.7894    5.2466   -7.2021 H   0  0  0  0  0  0  0  0  0  0  0  0
   -8.1300    2.5862  -10.3886 H   0  0  0  0  0  0  0  0  0  0  0  0
   -7.0143    4.3112   -9.1347 H   0  0  0  0  0  0  0  0  0  0  0  0
   -6.0886    7.0644  -16.4906 H   0  0  0  0  0  0  0  0  0  0  0  0
  1  5  1  0  0  0  0
  1 20  1  0  0  0  0
  1 22  1  0  0  0  0
  2  3  1  0  0  0  0
  2  6  2  0  0  0  0
  3  7  2  0  0  0  0
  4  5  2  0  0  0  0
  4  6  1  0  0  0  0
  5  7  1  0  0  0  0
  6 10  1  0  0  0  0
  7 11  1  0  0  0  0
  8  9  2  0  0  0  0
  8 14  1  0  0  0  0
  9 15  1  0  0  0  0
 10 18  1  0  0  0  0
 10 19  2  0  0  0  0
 11 20  1  0  0  0  0
 12 16  1  0  0  0  0
 12 18  1  0  0  0  0
 13 17  1  0  0  0  0
 13 18  1  0  0  0  0
 14 16  1  0  0  0  0
 14 21  1  0  0  0  0
 15 17  1  0  0  0  0
 15 21  1  0  0  0  0
 16 17  1  0  0  0  0
  2 23  1  0  0  0  0
  3 24  1  0  0  0  0
  4 25  1  0  0  0  0
  8 26  1  0  0  0  0
  9 27  1  0  0  0  0
 11 28  1  0  0  0  0
 11 29  1  0  0  0  0
 12 30  1  0  0  0  0
 12 31  1  0  0  0  0
 13 32  1  0  0  0  0
 13 33  1  0  0  0  0
 14 34  1  0  0  0  0
 15 35  1  0  0  0  0
 16 36  1  0  0  0  0
 17 37  1  0  0  0  0
 22 38  1  0  0  0  0
M  END
> <id>
EN300-26616923

> <smiles>
OB1OCC=2C=CC(=CC12)C(=O)N3CC4C(C3)C5OC4C=C5

> <IUPAC Name>
6-{10-oxa-4-azatricyclo[5.2.1.0,2,6]dec-8-ene-4-carbonyl}-1,3-dihydro-2,1-benzoxaborol-1-ol

> <URL>
https://www.enaminestore.com/catalog/EN300-26616923

> <ROCS_ShapeQuery>
_x0404_0B

> <ROCS_TanimotoCombo>
0.443 

> <ROCS_ShapeTanimoto>
0.368 

> <ROCS_ColorTanimoto>
0.075 

> <ROCS_RefTversky>
0.323 

> <ROCS_RefColorTversky>
0.084 

> <ROCS_RefTverskyCombo>
0.407 

> <ROCS_FitTversky>
1.610 

> <ROCS_FitColorTversky>
0.412 

> <ROCS_FitTverskyCombo>
2.022 

> <ROCS_ColorScore>
-6.083

> <ROCS_Overlap>
2156.990

> <ROCS_Rank>
167                 

$$$$
untitled-dbase-125226_0
  -OEChem-08222312023D

 33 36  0     0  0  0  0  0  0999 V2000
   -7.8476    4.6915  -18.4643 C   0  0  0  0  0  0  0  0  0  0  0  0
   -9.2503    4.7147  -18.5158 C   0  0  0  0  0  0  0  0  0  0  0  0
   -7.1753    4.9273  -17.2631 C   0  0  0  0  0  0  0  0  0  0  0  0
  -10.0007    4.9741  -17.3670 C   0  0  0  0  0  0  0  0  0  0  0  0
   -8.8417    6.1489  -10.4305 C   0  0  0  0  0  0  0  0  0  0  0  0
   -8.8507    4.7811  -10.6609 C   0  0  0  0  0  0  0  0  0  0  0  0
   -7.9271    5.1956  -16.1316 C   0  0  0  0  0  0  0  0  0  0  0  0
   -9.3255    5.2187  -16.1830 C   0  0  0  0  0  0  0  0  0  0  0  0
   -8.8904    6.6752   -9.1561 C   0  0  0  0  0  0  0  0  0  0  0  0
   -8.9084    3.8673   -9.6287 C   0  0  0  0  0  0  0  0  0  0  0  0
   -8.9499    5.7680   -8.0943 C   0  0  0  0  0  0  0  0  0  0  0  0
   -8.9586    4.3777   -8.3283 C   0  0  0  0  0  0  0  0  0  0  0  0
   -8.7738    6.8259  -11.7249 C   0  0  0  0  0  0  0  0  0  0  0  0
   -8.7887    4.5639  -12.1061 C   0  0  0  0  0  0  0  0  0  0  0  0
   -7.4375    5.4421  -14.7395 C   0  0  0  0  0  0  0  0  0  0  0  0
   -9.9076    5.4832  -14.8303 C   0  0  0  0  0  0  0  0  0  0  0  0
   -8.6888    6.0595  -14.0858 C   0  0  0  0  0  0  0  0  0  0  0  0
   -8.7491    5.8216  -12.6707 N   0  0  0  0  0  0  0  0  0  0  0  0
   -8.7474    8.0346  -11.8651 O   0  0  0  0  0  0  0  0  0  0  0  0
   -8.7776    3.4657  -12.6305 O   0  0  0  0  0  0  0  0  0  0  0  0
   -8.8800    7.9942   -8.9358 F   0  0  0  0  0  0  0  0  0  0  0  0
   -8.9168    2.5488   -9.8523 F   0  0  0  0  0  0  0  0  0  0  0  0
   -9.0002    6.2245   -6.8354 F   0  0  0  0  0  0  0  0  0  0  0  0
   -9.0148    3.5350   -7.2879 F   0  0  0  0  0  0  0  0  0  0  0  0
   -7.2805    4.4940  -19.3699 H   0  0  0  0  0  0  0  0  0  0  0  0
   -9.7556    4.5346  -19.4608 H   0  0  0  0  0  0  0  0  0  0  0  0
   -6.0916    4.9011  -17.2240 H   0  0  0  0  0  0  0  0  0  0  0  0
  -11.0847    4.9839  -17.4075 H   0  0  0  0  0  0  0  0  0  0  0  0
   -7.1093    4.5263  -14.2407 H   0  0  0  0  0  0  0  0  0  0  0  0
   -6.6152    6.1641  -14.7596 H   0  0  0  0  0  0  0  0  0  0  0  0
  -10.7021    6.2320  -14.9106 H   0  0  0  0  0  0  0  0  0  0  0  0
  -10.3025    4.5795  -14.3580 H   0  0  0  0  0  0  0  0  0  0  0  0
   -8.6697    7.1727  -14.1902 H   0  0  0  0  0  0  0  0  0  0  0  0
  1  2  2  0  0  0  0
  1  3  1  0  0  0  0
  2  4  1  0  0  0  0
  3  7  2  0  0  0  0
  4  8  2  0  0  0  0
  5  6  1  0  0  0  0
  5  9  2  0  0  0  0
  5 13  1  0  0  0  0
  6 10  2  0  0  0  0
  6 14  1  0  0  0  0
  7  8  1  0  0  0  0
  7 15  1  0  0  0  0
  8 16  1  0  0  0  0
  9 11  1  0  0  0  0
  9 21  1  0  0  0  0
 10 12  1  0  0  0  0
 10 22  1  0  0  0  0
 11 12  2  0  0  0  0
 11 23  1  0  0  0  0
 12 24  1  0  0  0  0
 13 18  1  0  0  0  0
 13 19  2  0  0  0  0
 14 18  1  0  0  0  0
 14 20  2  0  0  0  0
 15 17  1  0  0  0  0
 16 17  1  0  0  0  0
 17 18  1  0  0  0  0
  1 25  1  0  0  0  0
  2 26  1  0  0  0  0
  3 27  1  0  0  0  0
  4 28  1  0  0  0  0
 15 29  1  0  0  0  0
 15 30  1  0  0  0  0
 16 31  1  0  0  0  0
 16 32  1  0  0  0  0
 17 33  1  0  0  0  0
M  END
> <id>
EN300-7438774

> <smiles>
FC=1C=2C(=O)N(C3CC=4C=CC=CC4C3)C(=O)C2C(F)=C(F)C1F

> <MDLNUMBER>
MFCD32198306

> <IUPAC Name>
2-(2,3-dihydro-1H-inden-2-yl)-4,5,6,7-tetrafluoro-2,3-dihydro-1H-isoindole-1,3-dione

> <CAS>
194225-50-8

> <Purity>
95

> <URL>
https://www.enaminestore.com/catalog/EN300-7438774

> <ROCS_ShapeQuery>
_x0404_0B

> <ROCS_TanimotoCombo>
0.443 

> <ROCS_ShapeTanimoto>
0.388 

> <ROCS_ColorTanimoto>
0.055 

> <ROCS_RefTversky>
0.340 

> <ROCS_RefColorTversky>
0.059 

> <ROCS_RefTverskyCombo>
0.399 

> <ROCS_FitTversky>
1.580 

> <ROCS_FitColorTversky>
0.446 

> <ROCS_FitTverskyCombo>
2.026 

> <ROCS_ColorScore>
-4.245

> <ROCS_Overlap>
2270.703

> <ROCS_Rank>
168                 

$$$$
untitled-dbase-91002_6191
  -OEChem-08222312023D

 52 54  0     1  0  0  0  0  0999 V2000
   -9.4336    2.1346   -8.4777 C   0  0  0  0  0  0  0  0  0  0  0  0
   -9.3655    3.0086   -9.5570 C   0  0  0  0  0  0  0  0  0  0  0  0
   -8.7910    3.9270   -7.0526 C   0  0  0  0  0  0  0  0  0  0  0  0
   -9.1424    2.5947   -7.1983 C   0  0  0  0  0  0  0  0  0  0  0  0
   -9.0043    4.3224   -9.3056 C   0  0  0  0  0  0  0  0  0  0  0  0
   -8.5683    5.0460  -16.5466 C   0  0  0  0  0  0  0  0  0  0  0  0
   -9.9302    7.7553  -14.4348 C   0  0  0  0  0  0  0  0  0  0  0  0
   -7.5461    5.3895  -11.1341 C   0  0  0  0  0  0  0  0  0  0  0  0
  -10.0785    7.1079  -13.0543 C   0  0  0  0  0  0  0  0  0  0  0  0
   -7.7958    6.1187  -12.4538 C   0  0  0  0  0  0  0  0  0  0  0  0
   -9.8169    4.9829  -11.6685 C   0  0  0  0  0  0  0  0  0  0  0  0
   -8.8201    7.1621  -15.2870 C   0  0  0  0  0  0  0  0  0  0  0  0
   -9.3235    4.9771  -14.1542 C   0  0  0  0  0  0  0  0  0  0  0  0
   -8.9198    5.3052  -10.4597 C   0  0  1  0  0  0  0  0  0  0  0  0
   -9.2599    5.8098  -12.8603 C   0  0  1  0  0  0  0  0  0  0  0  0
   -8.4549    4.9806  -19.4046 C   0  0  0  0  0  0  0  0  0  0  0  0
   -6.1847    6.0262  -19.1549 C   0  0  0  0  0  0  0  0  0  0  0  0
   -6.6223    3.7441  -18.2017 C   0  0  0  0  0  0  0  0  0  0  0  0
   -7.2250    5.1144  -18.5079 C   0  0  0  0  0  0  0  0  0  0  0  0
   -8.7141    4.8059   -8.0769 N   0  0  0  0  0  0  0  0  0  0  0  0
   -8.8964    5.7048  -15.3557 N   0  0  0  0  0  0  0  0  0  0  0  0
   -9.0596    3.9783  -16.9076 O   0  0  0  0  0  0  0  0  0  0  0  0
   -9.2549    6.6015   -9.9572 O   0  0  0  0  0  0  0  0  0  0  0  0
   -7.6244    5.7228  -17.2745 O   0  0  0  0  0  0  0  0  0  0  0  0
   -9.2231    1.4432   -5.7103 Br  0  0  0  0  0  0  0  0  0  0  0  0
   -9.7145    1.0988   -8.6489 H   0  0  0  0  0  0  0  0  0  0  0  0
   -9.5908    2.6618  -10.5600 H   0  0  0  0  0  0  0  0  0  0  0  0
   -8.5516    4.3482   -6.0806 H   0  0  0  0  0  0  0  0  0  0  0  0
  -10.8914    7.6832  -14.9829 H   0  0  0  0  0  0  0  0  0  0  0  0
   -9.7536    8.8418  -14.3063 H   0  0  0  0  0  0  0  0  0  0  0  0
   -7.1320    4.3892  -11.3359 H   0  0  0  0  0  0  0  0  0  0  0  0
   -6.8117    5.9359  -10.5244 H   0  0  0  0  0  0  0  0  0  0  0  0
   -9.7722    7.8454  -12.2885 H   0  0  0  0  0  0  0  0  0  0  0  0
  -11.1499    6.9149  -12.8609 H   0  0  0  0  0  0  0  0  0  0  0  0
   -7.6534    7.2038  -12.3072 H   0  0  0  0  0  0  0  0  0  0  0  0
   -7.0683    5.8146  -13.2248 H   0  0  0  0  0  0  0  0  0  0  0  0
   -9.7990    3.9134  -11.8998 H   0  0  0  0  0  0  0  0  0  0  0  0
  -10.8559    5.2478  -11.4493 H   0  0  0  0  0  0  0  0  0  0  0  0
   -8.8479    7.6006  -16.2960 H   0  0  0  0  0  0  0  0  0  0  0  0
   -7.8349    7.4135  -14.8620 H   0  0  0  0  0  0  0  0  0  0  0  0
   -8.6553    4.0950  -14.0786 H   0  0  0  0  0  0  0  0  0  0  0  0
  -10.3372    4.5561  -14.2965 H   0  0  0  0  0  0  0  0  0  0  0  0
   -9.2040    4.3269  -18.9437 H   0  0  0  0  0  0  0  0  0  0  0  0
   -8.9171    5.9532  -19.6032 H   0  0  0  0  0  0  0  0  0  0  0  0
   -8.1913    4.5204  -20.3638 H   0  0  0  0  0  0  0  0  0  0  0  0
   -5.3005    6.1250  -18.5149 H   0  0  0  0  0  0  0  0  0  0  0  0
   -6.5828    7.0384  -19.2898 H   0  0  0  0  0  0  0  0  0  0  0  0
   -5.8656    5.6462  -20.1308 H   0  0  0  0  0  0  0  0  0  0  0  0
   -5.7401    3.8398  -17.5584 H   0  0  0  0  0  0  0  0  0  0  0  0
   -7.3438    3.0884  -17.7034 H   0  0  0  0  0  0  0  0  0  0  0  0
   -6.2829    3.2534  -19.1211 H   0  0  0  0  0  0  0  0  0  0  0  0
   -8.6074    6.8080   -9.2645 H   0  0  0  0  0  0  0  0  0  0  0  0
  1  2  1  0  0  0  0
  1  4  2  0  0  0  0
  2  5  2  0  0  0  0
  3  4  1  0  0  0  0
  3 20  2  0  0  0  0
  4 25  1  0  0  0  0
  5 14  1  0  0  0  0
  5 20  1  0  0  0  0
  6 21  1  0  0  0  0
  6 22  2  0  0  0  0
  6 24  1  0  0  0  0
  7  9  1  0  0  0  0
  7 12  1  0  0  0  0
  8 10  1  0  0  0  0
  8 14  1  0  0  0  0
  9 15  1  0  0  0  0
 10 15  1  0  0  0  0
 11 14  1  0  0  0  0
 11 15  1  0  0  0  0
 12 21  1  0  0  0  0
 13 15  1  0  0  0  0
 13 21  1  0  0  0  0
 14 23  1  0  0  0  0
 16 19  1  0  0  0  0
 17 19  1  0  0  0  0
 18 19  1  0  0  0  0
 19 24  1  0  0  0  0
  1 26  1  0  0  0  0
  2 27  1  0  0  0  0
  3 28  1  0  0  0  0
  7 29  1  0  0  0  0
  7 30  1  0  0  0  0
  8 31  1  0  0  0  0
  8 32  1  0  0  0  0
  9 33  1  0  0  0  0
  9 34  1  0  0  0  0
 10 35  1  0  0  0  0
 10 36  1  0  0  0  0
 11 37  1  0  0  0  0
 11 38  1  0  0  0  0
 12 39  1  0  0  0  0
 12 40  1  0  0  0  0
 13 41  1  0  0  0  0
 13 42  1  0  0  0  0
 16 43  1  0  0  0  0
 16 44  1  0  0  0  0
 16 45  1  0  0  0  0
 17 46  1  0  0  0  0
 17 47  1  0  0  0  0
 17 48  1  0  0  0  0
 18 49  1  0  0  0  0
 18 50  1  0  0  0  0
 18 51  1  0  0  0  0
 23 52  1  0  0  0  0
M  END
> <id>
EN300-7428800

> <smiles>
CC(C)(C)OC(=O)N1CCCC2(CCC(O)(C2)C=3C=CC(Br)=CN3)C1

> <IUPAC Name>
tert-butyl 2-(5-bromopyridin-2-yl)-2-hydroxy-7-azaspiro[4.5]decane-7-carboxylate

> <CAS>
2309461-35-4

> <URL>
https://www.enaminestore.com/catalog/EN300-7428800

> <ROCS_ShapeQuery>
_x0404_0B

> <ROCS_TanimotoCombo>
0.443 

> <ROCS_ShapeTanimoto>
0.393 

> <ROCS_ColorTanimoto>
0.050 

> <ROCS_RefTversky>
0.341 

> <ROCS_RefColorTversky>
0.055 

> <ROCS_RefTverskyCombo>
0.397 

> <ROCS_FitTversky>
1.631 

> <ROCS_FitColorTversky>
0.325 

> <ROCS_FitTverskyCombo>
1.956 

> <ROCS_ColorScore>
-4.007

> <ROCS_Overlap>
2280.066

> <ROCS_Rank>
169                 

$$$$
untitled-dbase-159003_422
  -OEChem-08222312023D

 45 47  0     0  0  0  0  0  0999 V2000
   -6.9694    5.9735  -16.3889 C   0  0  0  0  0  0  0  0  0  0  0  0
   -7.0884    5.9768  -15.0049 C   0  0  0  0  0  0  0  0  0  0  0  0
   -7.9836    5.4015  -17.1528 C   0  0  0  0  0  0  0  0  0  0  0  0
   -9.0914    4.8474  -16.5114 C   0  0  0  0  0  0  0  0  0  0  0  0
   -8.2209    5.4053  -14.4476 C   0  0  0  0  0  0  0  0  0  0  0  0
  -10.0580    4.2409  -18.5098 C   0  0  0  0  0  0  0  0  0  0  0  0
   -7.9146    5.3669  -18.6279 C   0  0  0  0  0  0  0  0  0  0  0  0
   -8.8096    5.3478   -8.8031 C   0  0  0  0  0  0  0  0  0  0  0  0
   -8.4216    4.1653  -12.3039 C   0  0  0  0  0  0  0  0  0  0  0  0
   -8.2950    6.6788  -12.3107 C   0  0  0  0  0  0  0  0  0  0  0  0
   -7.9021    4.3482  -10.8797 C   0  0  0  0  0  0  0  0  0  0  0  0
   -9.0640    6.5467  -10.9968 C   0  0  0  0  0  0  0  0  0  0  0  0
  -10.2925    2.9089   -8.6133 C   0  0  0  0  0  0  0  0  0  0  0  0
   -8.4618    2.1306   -7.0796 C   0  0  0  0  0  0  0  0  0  0  0  0
   -9.8686    4.1115   -6.4433 C   0  0  0  0  0  0  0  0  0  0  0  0
   -9.2335    3.3412   -7.6001 C   0  0  0  0  0  0  0  0  0  0  0  0
   -9.2216    4.8428  -15.1644 N   0  0  0  0  0  0  0  0  0  0  0  0
  -10.1518    4.2536  -17.2217 N   0  0  0  0  0  0  0  0  0  0  0  0
   -9.0059    4.7617  -19.2288 N   0  0  0  0  0  0  0  0  0  0  0  0
   -8.3213    5.4185  -13.0583 N   0  0  0  0  0  0  0  0  0  0  0  0
   -8.5975    5.4247  -10.1821 N   0  0  0  0  0  0  0  0  0  0  0  0
   -6.9614    5.8398  -19.2351 O   0  0  0  0  0  0  0  0  0  0  0  0
   -9.3852    6.2096   -8.1415 O   0  0  0  0  0  0  0  0  0  0  0  0
   -8.2959    4.1998   -8.2593 O   0  0  0  0  0  0  0  0  0  0  0  0
   -6.0915    6.4145  -16.8510 H   0  0  0  0  0  0  0  0  0  0  0  0
   -6.3092    6.4169  -14.3908 H   0  0  0  0  0  0  0  0  0  0  0  0
  -10.8415    3.7971  -19.1422 H   0  0  0  0  0  0  0  0  0  0  0  0
   -7.8467    3.3678  -12.7912 H   0  0  0  0  0  0  0  0  0  0  0  0
   -9.4694    3.8421  -12.2869 H   0  0  0  0  0  0  0  0  0  0  0  0
   -8.7481    7.4770  -12.9109 H   0  0  0  0  0  0  0  0  0  0  0  0
   -7.2562    6.9681  -12.1067 H   0  0  0  0  0  0  0  0  0  0  0  0
   -8.0102    3.4135  -10.3186 H   0  0  0  0  0  0  0  0  0  0  0  0
   -6.8344    4.5989  -10.8865 H   0  0  0  0  0  0  0  0  0  0  0  0
   -8.9772    7.4762  -10.4237 H   0  0  0  0  0  0  0  0  0  0  0  0
  -10.1309    6.3832  -11.1913 H   0  0  0  0  0  0  0  0  0  0  0  0
  -10.8486    3.7751   -8.9893 H   0  0  0  0  0  0  0  0  0  0  0  0
   -9.8459    2.3859   -9.4652 H   0  0  0  0  0  0  0  0  0  0  0  0
  -11.0308    2.2456   -8.1483 H   0  0  0  0  0  0  0  0  0  0  0  0
   -7.7009    2.4361   -6.3524 H   0  0  0  0  0  0  0  0  0  0  0  0
   -7.9265    1.6293   -7.8941 H   0  0  0  0  0  0  0  0  0  0  0  0
   -9.1258    1.4031   -6.6017 H   0  0  0  0  0  0  0  0  0  0  0  0
   -9.1093    4.4218   -5.7165 H   0  0  0  0  0  0  0  0  0  0  0  0
  -10.3959    5.0044   -6.7946 H   0  0  0  0  0  0  0  0  0  0  0  0
  -10.5789    3.4797   -5.8979 H   0  0  0  0  0  0  0  0  0  0  0  0
   -9.0270    4.7015  -20.2426 H   0  0  0  0  0  0  0  0  0  0  0  0
  1  2  1  0  0  0  0
  1  3  2  0  0  0  0
  2  5  2  0  0  0  0
  3  4  1  0  0  0  0
  3  7  1  0  0  0  0
  4 17  2  0  0  0  0
  4 18  1  0  0  0  0
  5 17  1  0  0  0  0
  5 20  1  0  0  0  0
  6 18  2  0  0  0  0
  6 19  1  0  0  0  0
  7 19  1  0  0  0  0
  7 22  2  0  0  0  0
  8 21  1  0  0  0  0
  8 23  2  0  0  0  0
  8 24  1  0  0  0  0
  9 11  1  0  0  0  0
  9 20  1  0  0  0  0
 10 12  1  0  0  0  0
 10 20  1  0  0  0  0
 11 21  1  0  0  0  0
 12 21  1  0  0  0  0
 13 16  1  0  0  0  0
 14 16  1  0  0  0  0
 15 16  1  0  0  0  0
 16 24  1  0  0  0  0
  1 25  1  0  0  0  0
  2 26  1  0  0  0  0
  6 27  1  0  0  0  0
  9 28  1  0  0  0  0
  9 29  1  0  0  0  0
 10 30  1  0  0  0  0
 10 31  1  0  0  0  0
 11 32  1  0  0  0  0
 11 33  1  0  0  0  0
 12 34  1  0  0  0  0
 12 35  1  0  0  0  0
 13 36  1  0  0  0  0
 13 37  1  0  0  0  0
 13 38  1  0  0  0  0
 14 39  1  0  0  0  0
 14 40  1  0  0  0  0
 14 41  1  0  0  0  0
 15 42  1  0  0  0  0
 15 43  1  0  0  0  0
 15 44  1  0  0  0  0
 19 45  1  0  0  0  0
M  END
> <id>
EN300-6738249

> <smiles>
CC(C)(C)OC(=O)N1CCN(CC1)C=2C=CC=3C(=O)NC=NC3N2

> <MDLNUMBER>
MFCD32703193

> <IUPAC Name>
tert-butyl 4-{4-oxo-3H,4H-pyrido[2,3-d]pyrimidin-7-yl}piperazine-1-carboxylate

> <CAS>
2460755-87-5

> <URL>
https://www.enaminestore.com/catalog/EN300-6738249

> <ROCS_ShapeQuery>
_x0404_0B

> <ROCS_TanimotoCombo>
0.443 

> <ROCS_ShapeTanimoto>
0.394 

> <ROCS_ColorTanimoto>
0.049 

> <ROCS_RefTversky>
0.342 

> <ROCS_RefColorTversky>
0.054 

> <ROCS_RefTverskyCombo>
0.396 

> <ROCS_FitTversky>
1.636 

> <ROCS_FitColorTversky>
0.319 

> <ROCS_FitTverskyCombo>
1.954 

> <ROCS_ColorScore>
-3.932

> <ROCS_Overlap>
2283.608

> <ROCS_Rank>
170                 

$$$$
untitled-dbase-173206_20
  -OEChem-08222312023D

 53 57  0     1  0  0  0  0  0999 V2000
   -5.9170    1.7503   -7.3336 C   0  0  0  0  0  0  0  0  0  0  0  0
   -5.4682    2.8808   -8.0370 C   0  0  0  0  0  0  0  0  0  0  0  0
   -7.2815    1.5230   -7.1524 C   0  0  0  0  0  0  0  0  0  0  0  0
   -6.3789    3.7987   -8.5685 C   0  0  0  0  0  0  0  0  0  0  0  0
   -9.2478    3.2672  -11.1152 C   0  0  0  0  0  0  0  0  0  0  0  0
   -9.1134    5.8976   -6.8041 C   0  0  0  0  0  0  0  0  0  0  0  0
   -9.3328    3.3393  -12.5067 C   0  0  0  0  0  0  0  0  0  0  0  0
   -9.1376    7.1696   -6.2293 C   0  0  0  0  0  0  0  0  0  0  0  0
   -9.0146    5.7247  -12.3991 C   0  0  0  0  0  0  0  0  0  0  0  0
   -8.8912    8.1574   -8.4126 C   0  0  0  0  0  0  0  0  0  0  0  0
   -8.1579    2.4480   -7.6893 C   0  0  0  0  0  0  0  0  0  0  0  0
   -7.7328    3.5659   -8.3844 C   0  0  0  0  0  0  0  0  0  0  0  0
   -9.0466    4.4249  -10.3427 C   0  0  0  0  0  0  0  0  0  0  0  0
   -8.9797    5.7356   -8.1945 C   0  0  0  0  0  0  0  0  0  0  0  0
   -9.2141    4.5681  -13.1487 C   0  0  0  0  0  0  0  0  0  0  0  0
   -8.9366    5.6533  -11.0042 C   0  0  0  0  0  0  0  0  0  0  0  0
   -8.8741    6.8828   -8.9892 C   0  0  0  0  0  0  0  0  0  0  0  0
   -9.0244    8.2995   -7.0337 C   0  0  0  0  0  0  0  0  0  0  0  0
   -9.6119    2.4409   -7.6398 C   0  0  0  0  0  0  0  0  0  0  0  0
   -8.6821    5.5499  -15.3990 C   0  0  0  0  0  0  0  0  0  0  0  0
   -8.9150    4.3626   -8.8338 C   0  0  2  0  0  0  0  0  0  0  0  0
   -6.8313    4.2958  -16.7688 C   0  0  0  0  0  0  0  0  0  0  0  0
   -8.4912    3.9681  -18.6252 C   0  0  0  0  0  0  0  0  0  0  0  0
   -7.4751    6.2327  -18.2414 C   0  0  0  0  0  0  0  0  0  0  0  0
   -7.9544    4.9421  -17.5786 C   0  0  0  0  0  0  0  0  0  0  0  0
   -9.2949    4.6412  -14.5394 N   0  0  0  0  0  0  0  0  0  0  0  0
  -10.3185    1.6075   -7.1092 O   0  0  0  0  0  0  0  0  0  0  0  0
   -7.9420    6.4760  -15.0909 O   0  0  0  0  0  0  0  0  0  0  0  0
   -8.7458    6.8499  -10.3567 O   0  0  0  0  0  0  0  0  0  0  0  0
  -10.0237    3.5636   -8.3117 O   0  0  0  0  0  0  0  0  0  0  0  0
   -9.0446    9.5397   -6.4747 O   0  0  0  0  0  0  0  0  0  0  0  0
   -9.0327    5.2586  -16.6905 O   0  0  0  0  0  0  0  0  0  0  0  0
   -5.1936    1.0485   -6.9279 H   0  0  0  0  0  0  0  0  0  0  0  0
   -4.4017    3.0421   -8.1688 H   0  0  0  0  0  0  0  0  0  0  0  0
   -7.6315    0.6518   -6.6106 H   0  0  0  0  0  0  0  0  0  0  0  0
   -6.0262    4.6694   -9.1110 H   0  0  0  0  0  0  0  0  0  0  0  0
   -9.3348    2.2928  -10.6409 H   0  0  0  0  0  0  0  0  0  0  0  0
   -9.1945    5.0325   -6.1512 H   0  0  0  0  0  0  0  0  0  0  0  0
   -9.4877    2.4279  -13.0784 H   0  0  0  0  0  0  0  0  0  0  0  0
   -9.2412    7.2699   -5.1523 H   0  0  0  0  0  0  0  0  0  0  0  0
   -8.9239    6.6880  -12.8968 H   0  0  0  0  0  0  0  0  0  0  0  0
   -8.8041    9.0408   -9.0409 H   0  0  0  0  0  0  0  0  0  0  0  0
   -6.4432    4.9917  -16.0164 H   0  0  0  0  0  0  0  0  0  0  0  0
   -7.1716    3.3880  -16.2600 H   0  0  0  0  0  0  0  0  0  0  0  0
   -5.9846    4.0343  -17.4138 H   0  0  0  0  0  0  0  0  0  0  0  0
   -9.2973    4.4277  -19.2086 H   0  0  0  0  0  0  0  0  0  0  0  0
   -8.9228    3.0810  -18.1478 H   0  0  0  0  0  0  0  0  0  0  0  0
   -7.7058    3.6431  -19.3151 H   0  0  0  0  0  0  0  0  0  0  0  0
   -8.2805    6.6964  -18.8223 H   0  0  0  0  0  0  0  0  0  0  0  0
   -7.1204    6.9581  -17.5020 H   0  0  0  0  0  0  0  0  0  0  0  0
   -6.6620    6.0294  -18.9476 H   0  0  0  0  0  0  0  0  0  0  0  0
   -9.8835    3.9317  -14.9885 H   0  0  0  0  0  0  0  0  0  0  0  0
   -9.1430    9.4735   -5.5113 H   0  0  0  0  0  0  0  0  0  0  0  0
  1  2  2  0  0  0  0
  1  3  1  0  0  0  0
  2  4  1  0  0  0  0
  3 11  2  0  0  0  0
  4 12  2  0  0  0  0
  5  7  1  0  0  0  0
  5 13  2  0  0  0  0
  6  8  1  0  0  0  0
  6 14  2  0  0  0  0
  7 15  2  0  0  0  0
  8 18  2  0  0  0  0
  9 15  1  0  0  0  0
  9 16  2  0  0  0  0
 10 17  2  0  0  0  0
 10 18  1  0  0  0  0
 11 12  1  0  0  0  0
 11 19  1  0  0  0  0
 12 21  1  0  0  0  0
 13 16  1  0  0  0  0
 13 21  1  0  0  0  0
 14 17  1  0  0  0  0
 14 21  1  0  0  0  0
 15 26  1  0  0  0  0
 16 29  1  0  0  0  0
 17 29  1  0  0  0  0
 18 31  1  0  0  0  0
 19 27  2  0  0  0  0
 19 30  1  0  0  0  0
 20 26  1  0  0  0  0
 20 28  2  0  0  0  0
 20 32  1  0  0  0  0
 21 30  1  0  0  0  0
 22 25  1  0  0  0  0
 23 25  1  0  0  0  0
 24 25  1  0  0  0  0
 25 32  1  0  0  0  0
  1 33  1  0  0  0  0
  2 34  1  0  0  0  0
  3 35  1  0  0  0  0
  4 36  1  0  0  0  0
  5 37  1  0  0  0  0
  6 38  1  0  0  0  0
  7 39  1  0  0  0  0
  8 40  1  0  0  0  0
  9 41  1  0  0  0  0
 10 42  1  0  0  0  0
 22 43  1  0  0  0  0
 22 44  1  0  0  0  0
 22 45  1  0  0  0  0
 23 46  1  0  0  0  0
 23 47  1  0  0  0  0
 23 48  1  0  0  0  0
 24 49  1  0  0  0  0
 24 50  1  0  0  0  0
 24 51  1  0  0  0  0
 26 52  1  0  0  0  0
 31 53  1  0  0  0  0
M  END
> <id>
EN300-27718348

> <smiles>
CC(C)(C)OC(=O)NC=1C=CC2=C(OC=3C=C(O)C=CC3C42OC(=O)C=5C=CC=CC54)C1

> <IUPAC Name>
tert-butyl N-{6'-hydroxy-3-oxo-3H-spiro[2-benzofuran-1,9'-xanthen]-3'-yl}carbamate

> <CAS>
2763919-80-6

> <URL>
https://www.enaminestore.com/catalog/EN300-27718348

> <ROCS_ShapeQuery>
_x0404_0B

> <ROCS_TanimotoCombo>
0.443 

> <ROCS_ShapeTanimoto>
0.368 

> <ROCS_ColorTanimoto>
0.075 

> <ROCS_RefTversky>
0.341 

> <ROCS_RefColorTversky>
0.084 

> <ROCS_RefTverskyCombo>
0.425 

> <ROCS_FitTversky>
1.278 

> <ROCS_FitColorTversky>
0.400 

> <ROCS_FitTverskyCombo>
1.677 

> <ROCS_ColorScore>
-6.076

> <ROCS_Overlap>
2284.958

> <ROCS_Rank>
171                 

$$$$
untitled-dbase-108200_40
  -OEChem-08222312023D

 46 48  0     1  0  0  0  0  0999 V2000
   -8.6373    5.9770   -9.7982 C   0  0  0  0  0  0  0  0  0  0  0  0
   -8.8712    4.7422  -10.3818 C   0  0  0  0  0  0  0  0  0  0  0  0
   -8.9700    4.6628   -8.1748 C   0  0  0  0  0  0  0  0  0  0  0  0
   -8.5897    2.9461  -12.0408 C   0  0  0  0  0  0  0  0  0  0  0  0
   -8.9278    4.2220  -11.7699 C   0  0  0  0  0  0  0  0  0  0  0  0
   -8.6518    5.4422  -15.2577 C   0  0  0  0  0  0  0  0  0  0  0  0
   -9.1988    3.8156   -6.9895 C   0  0  0  0  0  0  0  0  0  0  0  0
   -9.3747    5.1825  -12.8485 C   0  0  0  0  0  0  0  0  0  0  0  0
   -9.8282    2.5497   -7.6299 C   0  0  0  0  0  0  0  0  0  0  0  0
   -9.3792    2.5448   -9.1046 C   0  0  0  0  0  0  0  0  0  0  0  0
   -9.4128    3.2427  -14.4016 C   0  0  0  0  0  0  0  0  0  0  0  0
   -8.6489    2.3459  -13.4203 C   0  0  1  0  0  0  0  0  0  0  0  0
   -6.6572    6.1002  -17.2020 C   0  0  0  0  0  0  0  0  0  0  0  0
   -7.8372    4.4613  -18.6956 C   0  0  0  0  0  0  0  0  0  0  0  0
   -9.0430    6.5120  -17.8901 C   0  0  0  0  0  0  0  0  0  0  0  0
   -7.9979    5.4521  -17.5447 C   0  0  0  0  0  0  0  0  0  0  0  0
   -8.7010    5.9202   -8.4144 N   0  0  0  0  0  0  0  0  0  0  0  0
   -9.0705    3.9406   -9.3234 N   0  0  0  0  0  0  0  0  0  0  0  0
   -9.0917    4.6527  -14.1899 N   0  0  0  0  0  0  0  0  0  0  0  0
   -7.2955    2.0846  -13.9173 N   0  0  0  0  0  0  0  0  0  0  0  0
   -8.4562    6.6543  -15.1893 O   0  0  0  0  0  0  0  0  0  0  0  0
   -8.4538    4.7172  -16.4031 O   0  0  0  0  0  0  0  0  0  0  0  0
   -8.4255    6.9102  -10.3013 H   0  0  0  0  0  0  0  0  0  0  0  0
   -8.2781    2.2785  -11.2349 H   0  0  0  0  0  0  0  0  0  0  0  0
   -8.2493    3.5718   -6.5029 H   0  0  0  0  0  0  0  0  0  0  0  0
   -9.8739    4.2745   -6.2629 H   0  0  0  0  0  0  0  0  0  0  0  0
  -10.4452    5.3848  -12.7400 H   0  0  0  0  0  0  0  0  0  0  0  0
   -8.8396    6.1347  -12.7513 H   0  0  0  0  0  0  0  0  0  0  0  0
   -9.5506    1.6316   -7.1032 H   0  0  0  0  0  0  0  0  0  0  0  0
  -10.9222    2.6336   -7.5879 H   0  0  0  0  0  0  0  0  0  0  0  0
   -8.4609    1.9703   -9.2558 H   0  0  0  0  0  0  0  0  0  0  0  0
  -10.1702    2.2231   -9.7861 H   0  0  0  0  0  0  0  0  0  0  0  0
   -9.1479    3.0149  -15.4460 H   0  0  0  0  0  0  0  0  0  0  0  0
  -10.4941    3.0705  -14.3083 H   0  0  0  0  0  0  0  0  0  0  0  0
   -9.1605    1.3838  -13.3314 H   0  0  0  0  0  0  0  0  0  0  0  0
   -6.7683    6.8122  -16.3763 H   0  0  0  0  0  0  0  0  0  0  0  0
   -5.9087    5.3531  -16.9186 H   0  0  0  0  0  0  0  0  0  0  0  0
   -6.2704    6.6721  -18.0532 H   0  0  0  0  0  0  0  0  0  0  0  0
   -8.7967    3.9939  -18.9448 H   0  0  0  0  0  0  0  0  0  0  0  0
   -7.1598    3.6460  -18.4170 H   0  0  0  0  0  0  0  0  0  0  0  0
   -7.4441    4.9467  -19.5947 H   0  0  0  0  0  0  0  0  0  0  0  0
  -10.0047    6.0474  -18.1359 H   0  0  0  0  0  0  0  0  0  0  0  0
   -9.1984    7.2103  -17.0613 H   0  0  0  0  0  0  0  0  0  0  0  0
   -8.7405    7.0836  -18.7750 H   0  0  0  0  0  0  0  0  0  0  0  0
   -6.8373    1.4959  -13.2644 H   0  0  0  0  0  0  0  0  0  0  0  0
   -7.3740    1.6401  -14.7999 H   0  0  0  0  0  0  0  0  0  0  0  0
  1  2  2  0  0  0  0
  1 17  1  0  0  0  0
  2  5  1  0  0  0  0
  2 18  1  0  0  0  0
  3  7  1  0  0  0  0
  3 17  2  0  0  0  0
  3 18  1  0  0  0  0
  4  5  2  0  0  0  0
  4 12  1  0  0  0  0
  5  8  1  0  0  0  0
  6 19  1  0  0  0  0
  6 21  2  0  0  0  0
  6 22  1  0  0  0  0
  7  9  1  0  0  0  0
  8 19  1  0  0  0  0
  9 10  1  0  0  0  0
 10 18  1  0  0  0  0
 11 12  1  0  0  0  0
 11 19  1  0  0  0  0
 12 20  1  0  0  0  0
 13 16  1  0  0  0  0
 14 16  1  0  0  0  0
 15 16  1  0  0  0  0
 16 22  1  0  0  0  0
  1 23  1  0  0  0  0
  4 24  1  0  0  0  0
  7 25  1  0  0  0  0
  7 26  1  0  0  0  0
  8 27  1  0  0  0  0
  8 28  1  0  0  0  0
  9 29  1  0  0  0  0
  9 30  1  0  0  0  0
 10 31  1  0  0  0  0
 10 32  1  0  0  0  0
 11 33  1  0  0  0  0
 11 34  1  0  0  0  0
 12 35  1  0  0  0  0
 13 36  1  0  0  0  0
 13 37  1  0  0  0  0
 13 38  1  0  0  0  0
 14 39  1  0  0  0  0
 14 40  1  0  0  0  0
 14 41  1  0  0  0  0
 15 42  1  0  0  0  0
 15 43  1  0  0  0  0
 15 44  1  0  0  0  0
 20 45  1  0  0  0  0
 20 46  1  0  0  0  0
M  END
> <id>
EN300-743341

> <smiles>
CC(C)(C)OC(=O)N1CC(N)C=C(C1)C2=CN=C3CCCN23

> <IUPAC Name>
tert-butyl 3-amino-5-{5H,6H,7H-pyrrolo[1,2-a]imidazol-3-yl}-1,2,3,6-tetrahydropyridine-1-carboxylate

> <CAS>
2137712-96-8

> <URL>
https://www.enaminestore.com/catalog/EN300-743341

> <ROCS_ShapeQuery>
_x0404_0B

> <ROCS_TanimotoCombo>
0.443 

> <ROCS_ShapeTanimoto>
0.344 

> <ROCS_ColorTanimoto>
0.099 

> <ROCS_RefTversky>
0.306 

> <ROCS_RefColorTversky>
0.105 

> <ROCS_RefTverskyCombo>
0.411 

> <ROCS_FitTversky>
1.575 

> <ROCS_FitColorTversky>
0.613 

> <ROCS_FitTverskyCombo>
2.188 

> <ROCS_ColorScore>
-7.593

> <ROCS_Overlap>
2041.277

> <ROCS_Rank>
172                 

$$$$
untitled-dbase-68194_256
  -OEChem-08222312023D

 44 46  0     0  0  0  0  0  0999 V2000
   -8.0717    1.6050   -8.0514 C   0  0  0  0  0  0  0  0  0  0  0  0
   -8.4015    2.8158   -8.6602 C   0  0  0  0  0  0  0  0  0  0  0  0
   -7.4145    0.6140   -8.7806 C   0  0  0  0  0  0  0  0  0  0  0  0
   -7.4170    2.0448  -10.7274 C   0  0  0  0  0  0  0  0  0  0  0  0
   -8.0742    3.0357   -9.9981 C   0  0  0  0  0  0  0  0  0  0  0  0
   -7.0871    0.8339  -10.1186 C   0  0  0  0  0  0  0  0  0  0  0  0
   -8.4152    4.2882  -10.6272 C   0  0  0  0  0  0  0  0  0  0  0  0
   -8.9803    5.7647  -12.1345 C   0  0  0  0  0  0  0  0  0  0  0  0
   -8.8550    5.6593  -15.8397 C   0  0  0  0  0  0  0  0  0  0  0  0
   -9.3627    6.3183  -13.4573 C   0  0  0  0  0  0  0  0  0  0  0  0
   -8.7174    3.4432  -12.9856 C   0  0  0  0  0  0  0  0  0  0  0  0
   -9.5200    3.9254  -14.1902 C   0  0  0  0  0  0  0  0  0  0  0  0
   -7.5345    5.0500  -18.3045 C   0  0  0  0  0  0  0  0  0  0  0  0
   -9.6849    3.9335  -18.9668 C   0  0  0  0  0  0  0  0  0  0  0  0
   -9.6502    6.3999  -18.4939 C   0  0  0  0  0  0  0  0  0  0  0  0
   -9.0523    5.0421  -18.1283 C   0  0  0  0  0  0  0  0  0  0  0  0
   -8.5041    5.4558  -10.0282 N   0  0  0  0  0  0  0  0  0  0  0  0
   -8.8631    6.3921  -10.9822 N   0  0  0  0  0  0  0  0  0  0  0  0
   -8.7058    4.4403  -11.9412 N   0  0  0  0  0  0  0  0  0  0  0  0
   -9.1848    5.3165  -14.5233 N   0  0  0  0  0  0  0  0  0  0  0  0
   -6.4226   -0.1684  -10.8554 N   0  0  0  0  0  0  0  0  0  0  0  0
   -8.1910    6.6450  -16.1547 O   0  0  0  0  0  0  0  0  0  0  0  0
   -9.3502    4.7675  -16.7545 O   0  0  0  0  0  0  0  0  0  0  0  0
   -8.3266    1.4336   -7.0097 H   0  0  0  0  0  0  0  0  0  0  0  0
   -8.9140    3.5785   -8.0782 H   0  0  0  0  0  0  0  0  0  0  0  0
   -7.1623   -0.3258   -8.2960 H   0  0  0  0  0  0  0  0  0  0  0  0
   -7.1597    2.2113  -11.7719 H   0  0  0  0  0  0  0  0  0  0  0  0
  -10.3989    6.6676  -13.4276 H   0  0  0  0  0  0  0  0  0  0  0  0
   -8.7225    7.1719  -13.7057 H   0  0  0  0  0  0  0  0  0  0  0  0
   -9.1628    2.5377  -12.5586 H   0  0  0  0  0  0  0  0  0  0  0  0
   -7.6848    3.2315  -13.2802 H   0  0  0  0  0  0  0  0  0  0  0  0
   -9.2795    3.3242  -15.0760 H   0  0  0  0  0  0  0  0  0  0  0  0
  -10.5914    3.8118  -13.9989 H   0  0  0  0  0  0  0  0  0  0  0  0
   -7.0767    5.8444  -17.7043 H   0  0  0  0  0  0  0  0  0  0  0  0
   -7.0896    4.0931  -18.0124 H   0  0  0  0  0  0  0  0  0  0  0  0
   -7.2628    5.2543  -19.3465 H   0  0  0  0  0  0  0  0  0  0  0  0
  -10.7739    3.9241  -18.8434 H   0  0  0  0  0  0  0  0  0  0  0  0
   -9.3292    2.9484  -18.6436 H   0  0  0  0  0  0  0  0  0  0  0  0
   -9.4575    4.0521  -20.0311 H   0  0  0  0  0  0  0  0  0  0  0  0
  -10.7389    6.3945  -18.3676 H   0  0  0  0  0  0  0  0  0  0  0  0
   -9.2347    7.2030  -17.8765 H   0  0  0  0  0  0  0  0  0  0  0  0
   -9.4623    6.6376  -19.5472 H   0  0  0  0  0  0  0  0  0  0  0  0
   -6.1499   -1.0129  -10.3946 H   0  0  0  0  0  0  0  0  0  0  0  0
   -6.1516    0.0192  -11.7995 H   0  0  0  0  0  0  0  0  0  0  0  0
  1  2  1  0  0  0  0
  1  3  2  0  0  0  0
  2  5  2  0  0  0  0
  3  6  1  0  0  0  0
  4  5  1  0  0  0  0
  4  6  2  0  0  0  0
  5  7  1  0  0  0  0
  6 21  1  0  0  0  0
  7 17  2  0  0  0  0
  7 19  1  0  0  0  0
  8 10  1  0  0  0  0
  8 18  2  0  0  0  0
  8 19  1  0  0  0  0
  9 20  1  0  0  0  0
  9 22  2  0  0  0  0
  9 23  1  0  0  0  0
 10 20  1  0  0  0  0
 11 12  1  0  0  0  0
 11 19  1  0  0  0  0
 12 20  1  0  0  0  0
 13 16  1  0  0  0  0
 14 16  1  0  0  0  0
 15 16  1  0  0  0  0
 16 23  1  0  0  0  0
 17 18  1  0  0  0  0
  1 24  1  0  0  0  0
  2 25  1  0  0  0  0
  3 26  1  0  0  0  0
  4 27  1  0  0  0  0
 10 28  1  0  0  0  0
 10 29  1  0  0  0  0
 11 30  1  0  0  0  0
 11 31  1  0  0  0  0
 12 32  1  0  0  0  0
 12 33  1  0  0  0  0
 13 34  1  0  0  0  0
 13 35  1  0  0  0  0
 13 36  1  0  0  0  0
 14 37  1  0  0  0  0
 14 38  1  0  0  0  0
 14 39  1  0  0  0  0
 15 40  1  0  0  0  0
 15 41  1  0  0  0  0
 15 42  1  0  0  0  0
 21 43  1  0  0  0  0
 21 44  1  0  0  0  0
M  END
> <id>
EN300-37418303

> <smiles>
CC(C)(C)OC(=O)N1CCN2C(=NN=C2C1)C=3C=CC=C(N)C3

> <IUPAC Name>
tert-butyl 3-(3-aminophenyl)-5H,6H,7H,8H-[1,2,4]triazolo[4,3-a]pyrazine-7-carboxylate

> <CAS>
2792200-98-5

> <Purity>
95

> <URL>
https://www.enaminestore.com/catalog/EN300-37418303

> <ROCS_ShapeQuery>
_x0404_0B

> <ROCS_TanimotoCombo>
0.443 

> <ROCS_ShapeTanimoto>
0.318 

> <ROCS_ColorTanimoto>
0.125 

> <ROCS_RefTversky>
0.290 

> <ROCS_RefColorTversky>
0.130 

> <ROCS_RefTverskyCombo>
0.420 

> <ROCS_FitTversky>
1.431 

> <ROCS_FitColorTversky>
0.746 

> <ROCS_FitTverskyCombo>
2.177 

> <ROCS_ColorScore>
-9.419

> <ROCS_Overlap>
1937.663

> <ROCS_Rank>
173                 

$$$$
untitled-dbase-91579_3486
  -OEChem-08222312023D

 49 51  0     0  0  0  0  0  0999 V2000
   -9.0850    4.8043   -7.9370 C   0  0  0  0  0  0  0  0  0  0  0  0
   -9.3081    3.8640   -6.9374 C   0  0  0  0  0  0  0  0  0  0  0  0
   -9.0314    3.0310   -9.5210 C   0  0  0  0  0  0  0  0  0  0  0  0
   -8.9429    4.3881   -9.2561 C   0  0  0  0  0  0  0  0  0  0  0  0
   -9.3805    2.5304   -7.3061 C   0  0  0  0  0  0  0  0  0  0  0  0
   -8.1681    5.5221  -16.7879 C   0  0  0  0  0  0  0  0  0  0  0  0
   -8.5697    6.7500  -13.3851 C   0  0  0  0  0  0  0  0  0  0  0  0
   -9.4640    4.3988  -13.6217 C   0  0  0  0  0  0  0  0  0  0  0  0
   -7.8514    4.9270  -11.6563 C   0  0  0  0  0  0  0  0  0  0  0  0
   -9.8721    5.6709  -11.4327 C   0  0  0  0  0  0  0  0  0  0  0  0
   -7.5815    6.4628  -14.5146 C   0  0  0  0  0  0  0  0  0  0  0  0
   -8.4533    4.1517  -14.7382 C   0  0  0  0  0  0  0  0  0  0  0  0
   -8.6839    5.4494  -10.4370 C   0  0  0  0  0  0  0  0  0  0  0  0
   -8.9282    5.4543  -12.6424 C   0  0  0  0  0  0  0  0  0  0  0  0
   -7.1231    5.2362  -19.4371 C   0  0  0  0  0  0  0  0  0  0  0  0
   -5.3359    6.8426  -18.7060 C   0  0  0  0  0  0  0  0  0  0  0  0
   -5.5597    4.6166  -17.5646 C   0  0  0  0  0  0  0  0  0  0  0  0
   -6.3091    5.7563  -18.2532 C   0  0  0  0  0  0  0  0  0  0  0  0
   -9.2473    2.0880   -8.5766 N   0  0  0  0  0  0  0  0  0  0  0  0
   -8.0840    5.4044  -15.3973 N   0  0  0  0  0  0  0  0  0  0  0  0
   -9.0079    4.9519  -17.4822 O   0  0  0  0  0  0  0  0  0  0  0  0
   -8.1676    6.6809   -9.8637 O   0  0  0  0  0  0  0  0  0  0  0  0
   -7.2072    6.3484  -17.3076 O   0  0  0  0  0  0  0  0  0  0  0  0
   -9.6848    1.2290   -5.9564 Br  0  0  0  0  0  0  0  0  0  0  0  0
   -9.0230    5.8583   -7.6814 H   0  0  0  0  0  0  0  0  0  0  0  0
   -9.4195    4.1844   -5.9068 H   0  0  0  0  0  0  0  0  0  0  0  0
   -8.9284    2.6484  -10.5316 H   0  0  0  0  0  0  0  0  0  0  0  0
   -8.1340    7.4929  -12.7082 H   0  0  0  0  0  0  0  0  0  0  0  0
   -9.4782    7.2009  -13.8052 H   0  0  0  0  0  0  0  0  0  0  0  0
  -10.4138    4.7379  -14.0551 H   0  0  0  0  0  0  0  0  0  0  0  0
   -9.6728    3.4543  -13.1045 H   0  0  0  0  0  0  0  0  0  0  0  0
   -6.8528    5.3749  -11.7583 H   0  0  0  0  0  0  0  0  0  0  0  0
   -7.7169    3.8336  -11.6677 H   0  0  0  0  0  0  0  0  0  0  0  0
  -10.6763    4.9240  -11.3377 H   0  0  0  0  0  0  0  0  0  0  0  0
  -10.3465    6.6616  -11.3781 H   0  0  0  0  0  0  0  0  0  0  0  0
   -7.3827    7.3841  -15.0677 H   0  0  0  0  0  0  0  0  0  0  0  0
   -6.6250    6.1113  -14.1123 H   0  0  0  0  0  0  0  0  0  0  0  0
   -7.5309    3.7165  -14.3359 H   0  0  0  0  0  0  0  0  0  0  0  0
   -8.8650    3.4403  -15.4607 H   0  0  0  0  0  0  0  0  0  0  0  0
   -7.8229    4.4562  -19.1162 H   0  0  0  0  0  0  0  0  0  0  0  0
   -7.6928    6.0379  -19.9183 H   0  0  0  0  0  0  0  0  0  0  0  0
   -6.4709    4.7762  -20.1883 H   0  0  0  0  0  0  0  0  0  0  0  0
   -4.7497    7.2187  -17.8598 H   0  0  0  0  0  0  0  0  0  0  0  0
   -5.8757    7.7044  -19.1149 H   0  0  0  0  0  0  0  0  0  0  0  0
   -4.6442    6.4726  -19.4697 H   0  0  0  0  0  0  0  0  0  0  0  0
   -4.9757    4.9894  -16.7154 H   0  0  0  0  0  0  0  0  0  0  0  0
   -6.2456    3.8450  -17.2002 H   0  0  0  0  0  0  0  0  0  0  0  0
   -4.8439    4.1501  -18.2511 H   0  0  0  0  0  0  0  0  0  0  0  0
   -8.8519    6.9820   -9.2567 H   0  0  0  0  0  0  0  0  0  0  0  0
  1  2  1  0  0  0  0
  1  4  2  0  0  0  0
  2  5  2  0  0  0  0
  3  4  1  0  0  0  0
  3 19  2  0  0  0  0
  4 13  1  0  0  0  0
  5 19  1  0  0  0  0
  5 24  1  0  0  0  0
  6 20  1  0  0  0  0
  6 21  2  0  0  0  0
  6 23  1  0  0  0  0
  7 11  1  0  0  0  0
  7 14  1  0  0  0  0
  8 12  1  0  0  0  0
  8 14  1  0  0  0  0
  9 13  1  0  0  0  0
  9 14  1  0  0  0  0
 10 13  1  0  0  0  0
 10 14  1  0  0  0  0
 11 20  1  0  0  0  0
 12 20  1  0  0  0  0
 13 22  1  0  0  0  0
 15 18  1  0  0  0  0
 16 18  1  0  0  0  0
 17 18  1  0  0  0  0
 18 23  1  0  0  0  0
  1 25  1  0  0  0  0
  2 26  1  0  0  0  0
  3 27  1  0  0  0  0
  7 28  1  0  0  0  0
  7 29  1  0  0  0  0
  8 30  1  0  0  0  0
  8 31  1  0  0  0  0
  9 32  1  0  0  0  0
  9 33  1  0  0  0  0
 10 34  1  0  0  0  0
 10 35  1  0  0  0  0
 11 36  1  0  0  0  0
 11 37  1  0  0  0  0
 12 38  1  0  0  0  0
 12 39  1  0  0  0  0
 15 40  1  0  0  0  0
 15 41  1  0  0  0  0
 15 42  1  0  0  0  0
 16 43  1  0  0  0  0
 16 44  1  0  0  0  0
 16 45  1  0  0  0  0
 17 46  1  0  0  0  0
 17 47  1  0  0  0  0
 17 48  1  0  0  0  0
 22 49  1  0  0  0  0
M  END
> <id>
EN300-7428197

> <smiles>
CC(C)(C)OC(=O)N1CCC2(CC(O)(C2)C=3C=CC(Br)=NC3)CC1

> <IUPAC Name>
tert-butyl 2-(6-bromopyridin-3-yl)-2-hydroxy-7-azaspiro[3.5]nonane-7-carboxylate

> <CAS>
2309462-81-3

> <URL>
https://www.enaminestore.com/catalog/EN300-7428197

> <ROCS_ShapeQuery>
_x0404_0B

> <ROCS_TanimotoCombo>
0.443 

> <ROCS_ShapeTanimoto>
0.385 

> <ROCS_ColorTanimoto>
0.058 

> <ROCS_RefTversky>
0.334 

> <ROCS_RefColorTversky>
0.064 

> <ROCS_RefTverskyCombo>
0.398 

> <ROCS_FitTversky>
1.654 

> <ROCS_FitColorTversky>
0.375 

> <ROCS_FitTverskyCombo>
2.029 

> <ROCS_ColorScore>
-4.623

> <ROCS_Overlap>
2230.499

> <ROCS_Rank>
174                 

$$$$
untitled-dbase-142103_37
  -OEChem-08222312023D

 43 45  0     1  0  0  0  0  0999 V2000
   -9.6144    2.5984   -7.4019 C   0  0  0  0  0  0  0  0  0  0  0  0
   -9.0933    3.6874   -6.7066 C   0  0  0  0  0  0  0  0  0  0  0  0
   -9.6252    2.5806   -8.8013 C   0  0  0  0  0  0  0  0  0  0  0  0
   -8.5681    4.7910   -7.3847 C   0  0  0  0  0  0  0  0  0  0  0  0
   -9.1005    3.6811   -9.5084 C   0  0  0  0  0  0  0  0  0  0  0  0
   -8.9499    3.9999  -10.8859 C   0  0  0  0  0  0  0  0  0  0  0  0
   -8.5848    4.7612   -8.7839 C   0  0  0  0  0  0  0  0  0  0  0  0
   -8.3622    5.2422  -10.9651 C   0  0  0  0  0  0  0  0  0  0  0  0
   -7.1883    3.1022  -13.3585 C   0  0  0  0  0  0  0  0  0  0  0  0
   -8.6280    5.8822  -14.6331 C   0  0  0  0  0  0  0  0  0  0  0  0
   -9.3248    3.2392  -12.1073 C   0  0  0  0  0  0  0  0  0  0  0  0
   -8.0002    5.9774  -12.1984 C   0  0  0  0  0  0  0  0  0  0  0  0
   -8.5603    3.7601  -13.3387 C   0  0  1  0  0  0  0  0  0  0  0  0
   -7.1400    5.3082  -17.0095 C   0  0  0  0  0  0  0  0  0  0  0  0
   -9.2640    4.2797  -17.8696 C   0  0  0  0  0  0  0  0  0  0  0  0
   -9.1956    6.7281  -17.3142 C   0  0  0  0  0  0  0  0  0  0  0  0
   -8.6664    5.3419  -16.9494 C   0  0  0  0  0  0  0  0  0  0  0  0
   -8.1423    5.6960   -9.6959 N   0  0  0  0  0  0  0  0  0  0  0  0
   -8.4702    5.2380  -13.3956 N   0  0  0  0  0  0  0  0  0  0  0  0
   -6.1651    3.5994  -12.9123 O   0  0  0  0  0  0  0  0  0  0  0  0
   -8.3995    7.0742  -14.8303 O   0  0  0  0  0  0  0  0  0  0  0  0
   -7.2512    1.8815  -13.9444 O   0  0  0  0  0  0  0  0  0  0  0  0
   -9.0767    5.0346  -15.6121 O   0  0  0  0  0  0  0  0  0  0  0  0
  -10.0176    1.7516   -6.8528 H   0  0  0  0  0  0  0  0  0  0  0  0
   -9.0953    3.6802   -5.6196 H   0  0  0  0  0  0  0  0  0  0  0  0
  -10.0352    1.7244   -9.3293 H   0  0  0  0  0  0  0  0  0  0  0  0
   -8.1635    5.6386   -6.8417 H   0  0  0  0  0  0  0  0  0  0  0  0
   -9.1217    2.1720  -11.9595 H   0  0  0  0  0  0  0  0  0  0  0  0
  -10.4029    3.3536  -12.2739 H   0  0  0  0  0  0  0  0  0  0  0  0
   -8.4398    6.9800  -12.1893 H   0  0  0  0  0  0  0  0  0  0  0  0
   -6.9127    6.0782  -12.2852 H   0  0  0  0  0  0  0  0  0  0  0  0
   -9.0814    3.3685  -14.2283 H   0  0  0  0  0  0  0  0  0  0  0  0
   -6.7072    6.0692  -16.3503 H   0  0  0  0  0  0  0  0  0  0  0  0
   -6.7462    4.3296  -16.7162 H   0  0  0  0  0  0  0  0  0  0  0  0
   -6.7833    5.5360  -18.0205 H   0  0  0  0  0  0  0  0  0  0  0  0
  -10.3591    4.3002  -17.8296 H   0  0  0  0  0  0  0  0  0  0  0  0
   -8.9624    3.2746  -17.5530 H   0  0  0  0  0  0  0  0  0  0  0  0
   -8.9522    4.4239  -18.9091 H   0  0  0  0  0  0  0  0  0  0  0  0
  -10.2905    6.7526  -17.2712 H   0  0  0  0  0  0  0  0  0  0  0  0
   -8.8060    7.4986  -16.6409 H   0  0  0  0  0  0  0  0  0  0  0  0
   -8.9205    6.9922  -18.3418 H   0  0  0  0  0  0  0  0  0  0  0  0
   -7.7176    6.5815   -9.4564 H   0  0  0  0  0  0  0  0  0  0  0  0
   -6.3749    1.4412  -13.9686 H   0  0  0  0  0  0  0  0  0  0  0  0
  1  2  2  0  0  0  0
  1  3  1  0  0  0  0
  2  4  1  0  0  0  0
  3  5  2  0  0  0  0
  4  7  2  0  0  0  0
  5  6  1  0  0  0  0
  5  7  1  0  0  0  0
  6  8  2  0  0  0  0
  6 11  1  0  0  0  0
  7 18  1  0  0  0  0
  8 12  1  0  0  0  0
  8 18  1  0  0  0  0
  9 13  1  6  0  0  0
  9 20  2  0  0  0  0
  9 22  1  0  0  0  0
 10 19  1  0  0  0  0
 10 21  2  0  0  0  0
 10 23  1  0  0  0  0
 11 13  1  0  0  0  0
 12 19  1  0  0  0  0
 13 19  1  0  0  0  0
 14 17  1  0  0  0  0
 15 17  1  0  0  0  0
 16 17  1  0  0  0  0
 17 23  1  0  0  0  0
  1 24  1  0  0  0  0
  2 25  1  0  0  0  0
  3 26  1  0  0  0  0
  4 27  1  0  0  0  0
 11 28  1  0  0  0  0
 11 29  1  0  0  0  0
 12 30  1  0  0  0  0
 12 31  1  0  0  0  0
 13 32  1  0  0  0  0
 14 33  1  0  0  0  0
 14 34  1  0  0  0  0
 14 35  1  0  0  0  0
 15 36  1  0  0  0  0
 15 37  1  0  0  0  0
 15 38  1  0  0  0  0
 16 39  1  0  0  0  0
 16 40  1  0  0  0  0
 16 41  1  0  0  0  0
 18 42  1  0  0  0  0
 22 43  1  0  0  0  0
M  END
> <id>
EN300-1589920

> <smiles>
CC(C)(C)OC(=O)N1CC=2NC=3C=CC=CC3C2C[C@@H]1C(=O)O

> <MDLNUMBER>
MFCD00672321

> <IUPAC Name>
(3R)-2-[(tert-butoxy)carbonyl]-1H,2H,3H,4H,9H-pyrido[3,4-b]indole-3-carboxylic acid

> <CAS>
123910-26-9

> <URL>
https://www.enaminestore.com/catalog/EN300-1589920

> <ROCS_ShapeQuery>
_x0404_0B

> <ROCS_TanimotoCombo>
0.443 

> <ROCS_ShapeTanimoto>
0.352 

> <ROCS_ColorTanimoto>
0.090 

> <ROCS_RefTversky>
0.313 

> <ROCS_RefColorTversky>
0.097 

> <ROCS_RefTverskyCombo>
0.410 

> <ROCS_FitTversky>
1.546 

> <ROCS_FitColorTversky>
0.566 

> <ROCS_FitTverskyCombo>
2.111 

> <ROCS_ColorScore>
-7.000

> <ROCS_Overlap>
2093.371

> <ROCS_Rank>
175                 

$$$$
untitled-dbase-1171_2
  -OEChem-08222312023D

 41 44  0     0  0  0  0  0  0999 V2000
   -9.3441    4.1223  -16.3710 C   0  0  0  0  0  0  0  0  0  0  0  0
   -9.5049    4.4068  -15.0150 C   0  0  0  0  0  0  0  0  0  0  0  0
   -7.3977    5.5885  -15.0131 C   0  0  0  0  0  0  0  0  0  0  0  0
   -8.8784    4.6908  -10.6586 C   0  0  0  0  0  0  0  0  0  0  0  0
   -8.9798    3.8493   -9.5030 C   0  0  0  0  0  0  0  0  0  0  0  0
   -8.2101    4.5708  -17.0481 C   0  0  0  0  0  0  0  0  0  0  0  0
   -7.2369    5.3040  -16.3691 C   0  0  0  0  0  0  0  0  0  0  0  0
   -8.5317    5.1399  -14.3361 C   0  0  0  0  0  0  0  0  0  0  0  0
   -8.9813    4.6001   -8.3415 C   0  0  0  0  0  0  0  0  0  0  0  0
   -8.8320    6.0295  -10.3253 C   0  0  0  0  0  0  0  0  0  0  0  0
   -8.8033    4.3173  -12.0660 C   0  0  0  0  0  0  0  0  0  0  0  0
   -8.7122    6.7630  -12.4378 C   0  0  0  0  0  0  0  0  0  0  0  0
   -9.0403    2.3500   -9.4692 C   0  0  0  0  0  0  0  0  0  0  0  0
   -9.0819    4.0469   -6.9541 C   0  0  0  0  0  0  0  0  0  0  0  0
   -9.4824    1.8178   -8.0971 C   0  0  0  0  0  0  0  0  0  0  0  0
   -8.7689    2.5438   -6.9496 C   0  0  0  0  0  0  0  0  0  0  0  0
   -8.0596    4.2532  -18.4997 C   0  0  0  0  0  0  0  0  0  0  0  0
   -6.0156    5.7963  -17.0739 C   0  0  0  0  0  0  0  0  0  0  0  0
   -8.7630    7.0811  -11.1774 N   0  0  0  0  0  0  0  0  0  0  0  0
   -8.6979    5.4350  -12.9395 N   0  0  0  0  0  0  0  0  0  0  0  0
   -8.7844    3.1384  -12.4097 O   0  0  0  0  0  0  0  0  0  0  0  0
   -8.8925    6.2718   -8.6358 S   0  0  0  0  0  0  0  0  0  0  0  0
   -8.7687    8.1234  -13.5587 S   0  0  0  0  0  0  0  0  0  0  0  0
  -10.1076    3.5494  -16.8911 H   0  0  0  0  0  0  0  0  0  0  0  0
  -10.3923    4.0510  -14.4979 H   0  0  0  0  0  0  0  0  0  0  0  0
   -6.6381    6.1605  -14.4844 H   0  0  0  0  0  0  0  0  0  0  0  0
   -9.7512    2.0138  -10.2342 H   0  0  0  0  0  0  0  0  0  0  0  0
   -8.0626    1.9216   -9.7164 H   0  0  0  0  0  0  0  0  0  0  0  0
   -8.3628    4.5695   -6.3111 H   0  0  0  0  0  0  0  0  0  0  0  0
  -10.0811    4.2111   -6.5356 H   0  0  0  0  0  0  0  0  0  0  0  0
  -10.5678    1.9301   -7.9946 H   0  0  0  0  0  0  0  0  0  0  0  0
   -9.2639    0.7441   -8.0327 H   0  0  0  0  0  0  0  0  0  0  0  0
   -7.6860    2.3956   -7.0276 H   0  0  0  0  0  0  0  0  0  0  0  0
   -9.0850    2.1039   -5.9951 H   0  0  0  0  0  0  0  0  0  0  0  0
   -8.5102    5.0441  -19.1103 H   0  0  0  0  0  0  0  0  0  0  0  0
   -7.0026    4.1569  -18.7768 H   0  0  0  0  0  0  0  0  0  0  0  0
   -8.5431    3.3004  -18.7490 H   0  0  0  0  0  0  0  0  0  0  0  0
   -5.2148    5.0503  -17.0122 H   0  0  0  0  0  0  0  0  0  0  0  0
   -6.2232    5.9996  -18.1316 H   0  0  0  0  0  0  0  0  0  0  0  0
   -5.6547    6.7340  -16.6333 H   0  0  0  0  0  0  0  0  0  0  0  0
   -8.8507    9.0774  -12.6271 H   0  0  0  0  0  0  0  0  0  0  0  0
  1  2  1  0  0  0  0
  1  6  2  0  0  0  0
  2  8  2  0  0  0  0
  3  7  2  0  0  0  0
  3  8  1  0  0  0  0
  4  5  1  0  0  0  0
  4 10  2  0  0  0  0
  4 11  1  0  0  0  0
  5  9  2  0  0  0  0
  5 13  1  0  0  0  0
  6  7  1  0  0  0  0
  6 17  1  0  0  0  0
  7 18  1  0  0  0  0
  8 20  1  0  0  0  0
  9 14  1  0  0  0  0
  9 22  1  0  0  0  0
 10 19  1  0  0  0  0
 10 22  1  0  0  0  0
 11 20  1  0  0  0  0
 11 21  2  0  0  0  0
 12 19  2  0  0  0  0
 12 20  1  0  0  0  0
 12 23  1  0  0  0  0
 13 15  1  0  0  0  0
 14 16  1  0  0  0  0
 15 16  1  0  0  0  0
  1 24  1  0  0  0  0
  2 25  1  0  0  0  0
  3 26  1  0  0  0  0
 13 27  1  0  0  0  0
 13 28  1  0  0  0  0
 14 29  1  0  0  0  0
 14 30  1  0  0  0  0
 15 31  1  0  0  0  0
 15 32  1  0  0  0  0
 16 33  1  0  0  0  0
 16 34  1  0  0  0  0
 17 35  1  0  0  0  0
 17 36  1  0  0  0  0
 17 37  1  0  0  0  0
 18 38  1  0  0  0  0
 18 39  1  0  0  0  0
 18 40  1  0  0  0  0
 23 41  1  0  0  0  0
M  END
> <id>
EN300-06960

> <smiles>
CC=1C=CC(=CC1C)N2C(S)=NC=3SC=4CCCCC4C3C2=O

> <MDLNUMBER>
MFCD04618140

> <IUPAC Name>
4-(3,4-dimethylphenyl)-5-sulfanyl-8-thia-4,6-diazatricyclo[7.4.0.0,2,7]trideca-1(9),2(7),5-trien-3-one

> <CAS>
592537-72-9

> <URL>
https://www.enaminestore.com/catalog/EN300-06960

> <ROCS_ShapeQuery>
_x0404_0B

> <ROCS_TanimotoCombo>
0.443 

> <ROCS_ShapeTanimoto>
0.378 

> <ROCS_ColorTanimoto>
0.064 

> <ROCS_RefTversky>
0.329 

> <ROCS_RefColorTversky>
0.069 

> <ROCS_RefTverskyCombo>
0.399 

> <ROCS_FitTversky>
1.646 

> <ROCS_FitColorTversky>
0.478 

> <ROCS_FitTverskyCombo>
2.124 

> <ROCS_ColorScore>
-5.002

> <ROCS_Overlap>
2198.588

> <ROCS_Rank>
176                 

$$$$
untitled-dbase-172265_0
  -OEChem-08222312023D

 36 39  0     1  0  0  0  0  0999 V2000
   -9.1094    7.1402  -10.7206 C   0  0  0  0  0  0  0  0  0  0  0  0
   -8.8852    6.0575   -9.8730 C   0  0  0  0  0  0  0  0  0  0  0  0
   -8.9682    6.9889  -12.0969 C   0  0  0  0  0  0  0  0  0  0  0  0
   -7.7744    2.3121  -11.4369 C   0  0  0  0  0  0  0  0  0  0  0  0
   -7.9189    2.4762  -10.0624 C   0  0  0  0  0  0  0  0  0  0  0  0
   -8.5158    4.8076  -10.3924 C   0  0  0  0  0  0  0  0  0  0  0  0
   -8.3712    4.6469  -11.7933 C   0  0  0  0  0  0  0  0  0  0  0  0
   -8.6010    5.7472  -12.6311 C   0  0  0  0  0  0  0  0  0  0  0  0
   -8.0002    3.3930  -12.2986 C   0  0  0  0  0  0  0  0  0  0  0  0
   -8.2872    3.7150   -9.5424 C   0  0  0  0  0  0  0  0  0  0  0  0
   -8.4562    5.6032  -14.0968 C   0  0  0  0  0  0  0  0  0  0  0  0
   -7.8444    3.2016  -13.7573 C   0  0  0  0  0  0  0  0  0  0  0  0
   -8.1082    5.1554  -18.7176 C   0  0  0  0  0  0  0  0  0  0  0  0
   -6.9173    5.0183  -16.5134 C   0  0  0  0  0  0  0  0  0  0  0  0
   -9.2239    4.3025  -18.1623 C   0  0  0  0  0  0  0  0  0  0  0  0
   -9.3615    4.4767  -16.6607 C   0  0  0  0  0  0  0  0  0  0  0  0
   -8.0394    4.1395  -15.9903 C   0  0  2  0  0  0  0  0  0  0  0  0
   -7.0606    5.4203  -17.8410 N   0  0  0  0  0  0  0  0  0  0  0  0
   -8.1160    4.3213  -14.5651 N   0  0  0  0  0  0  0  0  0  0  0  0
   -8.6291    6.5870  -14.8129 O   0  0  0  0  0  0  0  0  0  0  0  0
   -7.4884    2.1055  -14.1851 O   0  0  0  0  0  0  0  0  0  0  0  0
   -8.1151    5.5392  -19.8871 O   0  0  0  0  0  0  0  0  0  0  0  0
   -5.9195    5.2933  -15.8471 O   0  0  0  0  0  0  0  0  0  0  0  0
   -8.4347    3.7764   -7.7487 S   0  0  0  0  0  0  0  0  0  0  0  0
   -9.3960    8.1029  -10.3073 H   0  0  0  0  0  0  0  0  0  0  0  0
   -9.0100    6.2356   -8.8088 H   0  0  0  0  0  0  0  0  0  0  0  0
   -9.1487    7.8494  -12.7354 H   0  0  0  0  0  0  0  0  0  0  0  0
   -7.4870    1.3356  -11.8172 H   0  0  0  0  0  0  0  0  0  0  0  0
   -7.7385    1.6194   -9.4170 H   0  0  0  0  0  0  0  0  0  0  0  0
  -10.1595    4.5914  -18.6532 H   0  0  0  0  0  0  0  0  0  0  0  0
   -9.0125    3.2580  -18.4168 H   0  0  0  0  0  0  0  0  0  0  0  0
   -9.6495    5.5130  -16.4396 H   0  0  0  0  0  0  0  0  0  0  0  0
  -10.1588    3.8241  -16.2867 H   0  0  0  0  0  0  0  0  0  0  0  0
   -7.7660    3.0939  -16.1810 H   0  0  0  0  0  0  0  0  0  0  0  0
   -6.3003    5.9800  -18.2176 H   0  0  0  0  0  0  0  0  0  0  0  0
   -8.1098    2.4964   -7.5254 H   0  0  0  0  0  0  0  0  0  0  0  0
  1  2  1  0  0  0  0
  1  3  2  0  0  0  0
  2  6  2  0  0  0  0
  3  8  1  0  0  0  0
  4  5  1  0  0  0  0
  4  9  2  0  0  0  0
  5 10  2  0  0  0  0
  6  7  1  0  0  0  0
  6 10  1  0  0  0  0
  7  8  2  0  0  0  0
  7  9  1  0  0  0  0
  8 11  1  0  0  0  0
  9 12  1  0  0  0  0
 10 24  1  0  0  0  0
 11 19  1  0  0  0  0
 11 20  2  0  0  0  0
 12 19  1  0  0  0  0
 12 21  2  0  0  0  0
 13 15  1  0  0  0  0
 13 18  1  0  0  0  0
 13 22  2  0  0  0  0
 14 17  1  0  0  0  0
 14 18  1  0  0  0  0
 14 23  2  0  0  0  0
 15 16  1  0  0  0  0
 16 17  1  0  0  0  0
 17 19  1  0  0  0  0
  1 25  1  0  0  0  0
  2 26  1  0  0  0  0
  3 27  1  0  0  0  0
  4 28  1  0  0  0  0
  5 29  1  0  0  0  0
 15 30  1  0  0  0  0
 15 31  1  0  0  0  0
 16 32  1  0  0  0  0
 16 33  1  0  0  0  0
 17 34  1  0  0  0  0
 18 35  1  0  0  0  0
 24 36  1  0  0  0  0
M  END
> <id>
EN300-43346092

> <smiles>
SC=1C=CC=2C(=O)N(C3CCC(=O)NC3=O)C(=O)C4=CC=CC1C42

> <IUPAC Name>
3-(2,6-dioxopiperidin-3-yl)-10-sulfanyl-3-azatricyclo[7.3.1.0,5,13]trideca-1(13),5,7,9,11-pentaene-2,4-dione

> <URL>
https://www.enaminestore.com/catalog/EN300-43346092

> <ROCS_ShapeQuery>
_x0404_0B

> <ROCS_TanimotoCombo>
0.443 

> <ROCS_ShapeTanimoto>
0.359 

> <ROCS_ColorTanimoto>
0.083 

> <ROCS_RefTversky>
0.320 

> <ROCS_RefColorTversky>
0.091 

> <ROCS_RefTverskyCombo>
0.412 

> <ROCS_FitTversky>
1.507 

> <ROCS_FitColorTversky>
0.495 

> <ROCS_FitTverskyCombo>
2.002 

> <ROCS_ColorScore>
-6.586

> <ROCS_Overlap>
2141.299

> <ROCS_Rank>
177                 

$$$$
untitled-dbase-75895_395
  -OEChem-08222312023D

 51 53  0     1  0  0  0  0  0999 V2000
   -8.6842    6.1491  -12.2213 C   0  0  0  0  0  0  0  0  0  0  0  0
   -8.7706    6.5764  -10.9011 C   0  0  0  0  0  0  0  0  0  0  0  0
   -8.7941    3.8518  -11.4708 C   0  0  0  0  0  0  0  0  0  0  0  0
   -8.7011    4.7881  -12.5064 C   0  0  0  0  0  0  0  0  0  0  0  0
   -8.8718    4.2502  -10.1252 C   0  0  0  0  0  0  0  0  0  0  0  0
   -8.8794    5.6375   -9.8696 C   0  0  0  0  0  0  0  0  0  0  0  0
   -7.5315    5.9393  -15.5265 C   0  0  0  0  0  0  0  0  0  0  0  0
   -6.2806    2.6876  -14.6295 C   0  0  0  0  0  0  0  0  0  0  0  0
   -6.1503    4.1813  -14.3488 C   0  0  0  0  0  0  0  0  0  0  0  0
   -8.7564    3.8973   -7.7365 C   0  0  0  0  0  0  0  0  0  0  0  0
   -8.6604    2.7894  -14.2143 C   0  0  0  0  0  0  0  0  0  0  0  0
   -9.4883    5.2252   -7.6504 C   0  0  0  0  0  0  0  0  0  0  0  0
   -8.6108    4.3132  -13.9566 C   0  0  2  0  0  0  0  0  0  0  0  0
   -7.9867    7.0712  -18.1155 C   0  0  0  0  0  0  0  0  0  0  0  0
   -5.9475    5.7904  -18.8300 C   0  0  0  0  0  0  0  0  0  0  0  0
   -7.9721    4.5570  -18.0007 C   0  0  0  0  0  0  0  0  0  0  0  0
   -8.8042    1.9130   -9.2665 C   0  0  0  0  0  0  0  0  0  0  0  0
   -7.1338    5.8276  -17.8689 C   0  0  0  0  0  0  0  0  0  0  0  0
   -7.4044    2.0952  -13.9026 N   0  0  0  0  0  0  0  0  0  0  0  0
   -8.9434    3.3449   -9.0704 N   0  0  2  0  0  0  0  0  0  0  0  0
   -7.4167    4.8633  -14.6372 N   0  0  0  0  0  0  0  0  0  0  0  0
   -8.3642    6.8383  -15.4223 O   0  0  0  0  0  0  0  0  0  0  0  0
   -8.9646    6.1589   -8.5981 O   0  0  0  0  0  0  0  0  0  0  0  0
   -6.6089    5.8916  -16.5378 O   0  0  0  0  0  0  0  0  0  0  0  0
   -8.6067    6.8820  -13.0196 H   0  0  0  0  0  0  0  0  0  0  0  0
   -8.7631    7.6403  -10.6794 H   0  0  0  0  0  0  0  0  0  0  0  0
   -8.7948    2.7967  -11.7359 H   0  0  0  0  0  0  0  0  0  0  0  0
   -6.3892    2.5107  -15.7084 H   0  0  0  0  0  0  0  0  0  0  0  0
   -5.3565    2.1842  -14.3191 H   0  0  0  0  0  0  0  0  0  0  0  0
   -5.9279    4.3530  -13.2985 H   0  0  0  0  0  0  0  0  0  0  0  0
   -5.3474    4.6026  -14.9438 H   0  0  0  0  0  0  0  0  0  0  0  0
   -7.6842    4.0372   -7.5511 H   0  0  0  0  0  0  0  0  0  0  0  0
   -9.1478    3.2150   -6.9738 H   0  0  0  0  0  0  0  0  0  0  0  0
   -9.4660    2.3325  -13.6289 H   0  0  0  0  0  0  0  0  0  0  0  0
   -8.9019    2.6130  -15.2697 H   0  0  0  0  0  0  0  0  0  0  0  0
  -10.5688    5.1105   -7.8052 H   0  0  0  0  0  0  0  0  0  0  0  0
   -9.3478    5.6592   -6.6548 H   0  0  0  0  0  0  0  0  0  0  0  0
   -9.5043    4.7587  -14.4841 H   0  0  0  0  0  0  0  0  0  0  0  0
   -8.8393    7.1016  -17.4277 H   0  0  0  0  0  0  0  0  0  0  0  0
   -7.4055    7.9904  -17.9897 H   0  0  0  0  0  0  0  0  0  0  0  0
   -8.4065    7.0629  -19.1279 H   0  0  0  0  0  0  0  0  0  0  0  0
   -5.3327    4.8998  -18.6566 H   0  0  0  0  0  0  0  0  0  0  0  0
   -5.2910    6.6539  -18.6732 H   0  0  0  0  0  0  0  0  0  0  0  0
   -6.2740    5.7882  -19.8749 H   0  0  0  0  0  0  0  0  0  0  0  0
   -7.3605    3.6648  -17.8239 H   0  0  0  0  0  0  0  0  0  0  0  0
   -8.8071    4.5494  -17.2926 H   0  0  0  0  0  0  0  0  0  0  0  0
   -8.3751    4.4595  -19.0153 H   0  0  0  0  0  0  0  0  0  0  0  0
   -8.8949    1.3992   -8.2981 H   0  0  0  0  0  0  0  0  0  0  0  0
   -9.5935    1.5576   -9.9453 H   0  0  0  0  0  0  0  0  0  0  0  0
   -7.8188    1.6972   -9.7051 H   0  0  0  0  0  0  0  0  0  0  0  0
   -7.4930    1.1121  -14.1579 H   0  0  0  0  0  0  0  0  0  0  0  0
  1  2  1  0  0  0  0
  1  4  2  0  0  0  0
  2  6  2  0  0  0  0
  3  4  1  0  0  0  0
  3  5  2  0  0  0  0
  4 13  1  0  0  0  0
  5  6  1  0  0  0  0
  5 20  1  0  0  0  0
  6 23  1  0  0  0  0
  7 21  1  0  0  0  0
  7 22  2  0  0  0  0
  7 24  1  0  0  0  0
  8  9  1  0  0  0  0
  8 19  1  0  0  0  0
  9 21  1  0  0  0  0
 10 12  1  0  0  0  0
 10 20  1  0  0  0  0
 11 13  1  0  0  0  0
 11 19  1  0  0  0  0
 12 23  1  0  0  0  0
 13 21  1  0  0  0  0
 14 18  1  0  0  0  0
 15 18  1  0  0  0  0
 16 18  1  0  0  0  0
 17 20  1  0  0  0  0
 18 24  1  0  0  0  0
  1 25  1  0  0  0  0
  2 26  1  0  0  0  0
  3 27  1  0  0  0  0
  8 28  1  0  0  0  0
  8 29  1  0  0  0  0
  9 30  1  0  0  0  0
  9 31  1  0  0  0  0
 10 32  1  0  0  0  0
 10 33  1  0  0  0  0
 11 34  1  0  0  0  0
 11 35  1  0  0  0  0
 12 36  1  0  0  0  0
 12 37  1  0  0  0  0
 13 38  1  0  0  0  0
 14 39  1  0  0  0  0
 14 40  1  0  0  0  0
 14 41  1  0  0  0  0
 15 42  1  0  0  0  0
 15 43  1  0  0  0  0
 15 44  1  0  0  0  0
 16 45  1  0  0  0  0
 16 46  1  0  0  0  0
 16 47  1  0  0  0  0
 17 48  1  0  0  0  0
 17 49  1  0  0  0  0
 17 50  1  0  0  0  0
 19 51  1  0  0  0  0
M  END
> <id>
EN300-1885583

> <smiles>
CN1CCOC=2C=CC(=CC12)C3CNCCN3C(=O)OC(C)(C)C

> <IUPAC Name>
tert-butyl 2-(4-methyl-3,4-dihydro-2H-1,4-benzoxazin-6-yl)piperazine-1-carboxylate

> <CAS>
2229531-41-1

> <URL>
https://www.enaminestore.com/catalog/EN300-1885583

> <ROCS_ShapeQuery>
_x0404_0B

> <ROCS_TanimotoCombo>
0.442 

> <ROCS_ShapeTanimoto>
0.349 

> <ROCS_ColorTanimoto>
0.094 

> <ROCS_RefTversky>
0.312 

> <ROCS_RefColorTversky>
0.099 

> <ROCS_RefTverskyCombo>
0.411 

> <ROCS_FitTversky>
1.515 

> <ROCS_FitColorTversky>
0.628 

> <ROCS_FitTverskyCombo>
2.143 

> <ROCS_ColorScore>
-7.154

> <ROCS_Overlap>
2082.920

> <ROCS_Rank>
178                 

$$$$
untitled-dbase-151556_680
  -OEChem-08222312023D

 60 61  0     1  0  0  0  0  0999 V2000
   -9.7707    5.3594  -16.7789 C   0  0  0  0  0  0  0  0  0  0  0  0
   -8.9226    4.9289   -9.2117 C   0  0  0  0  0  0  0  0  0  0  0  0
   -7.8247    6.5925  -13.7534 C   0  0  0  0  0  0  0  0  0  0  0  0
  -10.1529    5.7177  -13.2052 C   0  0  0  0  0  0  0  0  0  0  0  0
   -8.0388    6.3201  -15.2397 C   0  0  0  0  0  0  0  0  0  0  0  0
  -10.4348    6.3099  -14.5874 C   0  0  0  0  0  0  0  0  0  0  0  0
   -8.5705    3.7088  -11.3929 C   0  0  0  0  0  0  0  0  0  0  0  0
   -8.4546    6.1080  -11.3598 C   0  0  0  0  0  0  0  0  0  0  0  0
   -8.0668    4.2133  -12.7509 C   0  0  2  0  0  0  0  0  0  0  0  0
   -8.6423    5.6662  -12.8323 C   0  0  0  0  0  0  0  0  0  0  0  0
   -9.9593    5.4912  -19.6306 C   0  0  0  0  0  0  0  0  0  0  0  0
   -7.6449    4.5152  -19.6446 C   0  0  0  0  0  0  0  0  0  0  0  0
   -9.5483    3.2062  -18.6589 C   0  0  0  0  0  0  0  0  0  0  0  0
  -10.6452    4.3488   -7.0062 C   0  0  0  0  0  0  0  0  0  0  0  0
   -9.4946    2.1172   -6.9324 C   0  0  0  0  0  0  0  0  0  0  0  0
   -8.1754    4.2180   -6.5397 C   0  0  0  0  0  0  0  0  0  0  0  0
   -8.3982    3.2279  -13.8643 C   0  0  0  0  0  0  0  0  0  0  0  0
   -8.9666    4.6010  -18.8844 C   0  0  0  0  0  0  0  0  0  0  0  0
   -9.3484    3.5937   -7.2941 C   0  0  0  0  0  0  0  0  0  0  0  0
   -9.4153    5.9442  -15.5600 N   0  0  0  0  0  0  0  0  0  0  0  0
   -8.6690    4.9056  -10.5722 N   0  0  0  0  0  0  0  0  0  0  0  0
  -10.9147    5.0297  -17.0854 O   0  0  0  0  0  0  0  0  0  0  0  0
   -9.0009    5.9556   -8.5408 O   0  0  0  0  0  0  0  0  0  0  0  0
   -7.4389    2.1850  -13.8483 O   0  0  0  0  0  0  0  0  0  0  0  0
   -8.6932    5.1926  -17.6092 O   0  0  0  0  0  0  0  0  0  0  0  0
   -9.0792    3.6691   -8.6985 O   0  0  0  0  0  0  0  0  0  0  0  0
   -6.7506    6.4841  -13.5284 H   0  0  0  0  0  0  0  0  0  0  0  0
   -8.0656    7.6482  -13.5463 H   0  0  0  0  0  0  0  0  0  0  0  0
  -10.7192    6.2850  -12.4522 H   0  0  0  0  0  0  0  0  0  0  0  0
  -10.5680    4.6987  -13.1954 H   0  0  0  0  0  0  0  0  0  0  0  0
   -7.7999    7.2154  -15.8387 H   0  0  0  0  0  0  0  0  0  0  0  0
   -7.3402    5.5348  -15.5726 H   0  0  0  0  0  0  0  0  0  0  0  0
  -11.4331    5.9883  -14.9137 H   0  0  0  0  0  0  0  0  0  0  0  0
  -10.4661    7.4081  -14.5456 H   0  0  0  0  0  0  0  0  0  0  0  0
   -9.5673    3.2574  -11.4524 H   0  0  0  0  0  0  0  0  0  0  0  0
   -7.8859    2.9868  -10.9356 H   0  0  0  0  0  0  0  0  0  0  0  0
   -7.4268    6.4369  -11.1625 H   0  0  0  0  0  0  0  0  0  0  0  0
   -9.1303    6.9014  -11.0286 H   0  0  0  0  0  0  0  0  0  0  0  0
   -6.9671    4.2803  -12.6832 H   0  0  0  0  0  0  0  0  0  0  0  0
  -10.9094    5.5554  -19.0881 H   0  0  0  0  0  0  0  0  0  0  0  0
   -9.5682    6.5046  -19.7679 H   0  0  0  0  0  0  0  0  0  0  0  0
  -10.1940    5.0742  -20.6166 H   0  0  0  0  0  0  0  0  0  0  0  0
   -6.9296    3.8774  -19.1128 H   0  0  0  0  0  0  0  0  0  0  0  0
   -7.1767    5.5028  -19.7261 H   0  0  0  0  0  0  0  0  0  0  0  0
   -7.7844    4.1134  -20.6534 H   0  0  0  0  0  0  0  0  0  0  0  0
   -8.8364    2.5674  -18.1236 H   0  0  0  0  0  0  0  0  0  0  0  0
  -10.4784    3.2454  -18.0826 H   0  0  0  0  0  0  0  0  0  0  0  0
   -9.7514    2.7095  -19.6146 H   0  0  0  0  0  0  0  0  0  0  0  0
  -10.5443    5.4090   -7.2646 H   0  0  0  0  0  0  0  0  0  0  0  0
  -11.4876    3.9326   -7.5683 H   0  0  0  0  0  0  0  0  0  0  0  0
  -10.8900    4.3127   -5.9385 H   0  0  0  0  0  0  0  0  0  0  0  0
   -8.5665    1.5715   -7.1373 H   0  0  0  0  0  0  0  0  0  0  0  0
  -10.2729    1.6417   -7.5402 H   0  0  0  0  0  0  0  0  0  0  0  0
   -9.7496    1.9833   -5.8761 H   0  0  0  0  0  0  0  0  0  0  0  0
   -7.2451    3.6766   -6.7460 H   0  0  0  0  0  0  0  0  0  0  0  0
   -8.0323    5.2681   -6.8145 H   0  0  0  0  0  0  0  0  0  0  0  0
   -8.3334    4.1599   -5.4567 H   0  0  0  0  0  0  0  0  0  0  0  0
   -8.3649    3.7300  -14.8326 H   0  0  0  0  0  0  0  0  0  0  0  0
   -9.3911    2.8033  -13.7073 H   0  0  0  0  0  0  0  0  0  0  0  0
   -6.5698    2.5958  -13.9930 H   0  0  0  0  0  0  0  0  0  0  0  0
  1 20  1  0  0  0  0
  1 22  2  0  0  0  0
  1 25  1  0  0  0  0
  2 21  1  0  0  0  0
  2 23  2  0  0  0  0
  2 26  1  0  0  0  0
  3  5  1  0  0  0  0
  3 10  1  0  0  0  0
  4  6  1  0  0  0  0
  4 10  1  0  0  0  0
  5 20  1  0  0  0  0
  6 20  1  0  0  0  0
  7  9  1  0  0  0  0
  7 21  1  0  0  0  0
  8 10  1  0  0  0  0
  8 21  1  0  0  0  0
  9 10  1  0  0  0  0
  9 17  1  0  0  0  0
 11 18  1  0  0  0  0
 12 18  1  0  0  0  0
 13 18  1  0  0  0  0
 14 19  1  0  0  0  0
 15 19  1  0  0  0  0
 16 19  1  0  0  0  0
 17 24  1  0  0  0  0
 18 25  1  0  0  0  0
 19 26  1  0  0  0  0
  3 27  1  0  0  0  0
  3 28  1  0  0  0  0
  4 29  1  0  0  0  0
  4 30  1  0  0  0  0
  5 31  1  0  0  0  0
  5 32  1  0  0  0  0
  6 33  1  0  0  0  0
  6 34  1  0  0  0  0
  7 35  1  0  0  0  0
  7 36  1  0  0  0  0
  8 37  1  0  0  0  0
  8 38  1  0  0  0  0
  9 39  1  0  0  0  0
 11 40  1  0  0  0  0
 11 41  1  0  0  0  0
 11 42  1  0  0  0  0
 12 43  1  0  0  0  0
 12 44  1  0  0  0  0
 12 45  1  0  0  0  0
 13 46  1  0  0  0  0
 13 47  1  0  0  0  0
 13 48  1  0  0  0  0
 14 49  1  0  0  0  0
 14 50  1  0  0  0  0
 14 51  1  0  0  0  0
 15 52  1  0  0  0  0
 15 53  1  0  0  0  0
 15 54  1  0  0  0  0
 16 55  1  0  0  0  0
 16 56  1  0  0  0  0
 16 57  1  0  0  0  0
 17 58  1  0  0  0  0
 17 59  1  0  0  0  0
 24 60  1  0  0  0  0
M  END
> <id>
EN300-27782495

> <smiles>
CC(C)(C)OC(=O)N1CC(CO)C2(C1)CCN(CC2)C(=O)OC(C)(C)C

> <IUPAC Name>
2,8-di-tert-butyl 4-(hydroxymethyl)-2,8-diazaspiro[4.5]decane-2,8-dicarboxylate

> <CAS>
2028341-99-1

> <URL>
https://www.enaminestore.com/catalog/EN300-27782495

> <ROCS_ShapeQuery>
_x0404_0B

> <ROCS_TanimotoCombo>
0.442 

> <ROCS_ShapeTanimoto>
0.349 

> <ROCS_ColorTanimoto>
0.093 

> <ROCS_RefTversky>
0.314 

> <ROCS_RefColorTversky>
0.099 

> <ROCS_RefTverskyCombo>
0.413 

> <ROCS_FitTversky>
1.468 

> <ROCS_FitColorTversky>
0.627 

> <ROCS_FitTverskyCombo>
2.094 

> <ROCS_ColorScore>
-7.134

> <ROCS_Overlap>
2098.895

> <ROCS_Rank>
179                 

$$$$
untitled-dbase-152246_6
  -OEChem-08222312023D

 53 55  0     0  0  0  0  0  0999 V2000
   -8.7988    4.7427  -16.4192 B   0  0  0  0  0  0  0  0  0  0  0  0
   -8.9767    3.4601  -14.2034 C   0  0  0  0  0  0  0  0  0  0  0  0
   -9.0109    3.3790  -12.8071 C   0  0  0  0  0  0  0  0  0  0  0  0
   -8.7207    5.8703  -14.1170 C   0  0  0  0  0  0  0  0  0  0  0  0
   -8.8341    4.6853  -14.8502 C   0  0  0  0  0  0  0  0  0  0  0  0
   -8.7532    5.8053  -12.7129 C   0  0  0  0  0  0  0  0  0  0  0  0
   -8.8969    4.5726  -12.0781 C   0  0  0  0  0  0  0  0  0  0  0  0
   -8.6719    6.7374  -11.6639 C   0  0  0  0  0  0  0  0  0  0  0  0
   -9.0081    3.9526   -9.6501 C   0  0  0  0  0  0  0  0  0  0  0  0
   -9.5222    4.6925  -18.5915 C   0  0  0  0  0  0  0  0  0  0  0  0
   -7.9790    4.9511  -18.5475 C   0  0  0  0  0  0  0  0  0  0  0  0
   -8.5138    8.1989  -11.7663 C   0  0  0  0  0  0  0  0  0  0  0  0
  -10.3800    5.9350  -18.9206 C   0  0  0  0  0  0  0  0  0  0  0  0
   -9.9553    3.5587  -19.5316 C   0  0  0  0  0  0  0  0  0  0  0  0
   -7.5062    6.1504  -19.3812 C   0  0  0  0  0  0  0  0  0  0  0  0
   -7.1053    3.7349  -18.9287 C   0  0  0  0  0  0  0  0  0  0  0  0
   -7.9127    2.8039   -7.2998 C   0  0  0  0  0  0  0  0  0  0  0  0
   -8.9814    4.7258   -6.0860 C   0  0  0  0  0  0  0  0  0  0  0  0
  -10.4135    3.0849   -7.3370 C   0  0  0  0  0  0  0  0  0  0  0  0
   -9.0666    3.8055   -7.3018 C   0  0  0  0  0  0  0  0  0  0  0  0
   -8.7539    6.1731  -10.4614 N   0  0  0  0  0  0  0  0  0  0  0  0
   -8.8921    4.8474  -10.7170 N   0  0  0  0  0  0  0  0  0  0  0  0
   -9.1339    2.7541   -9.8404 O   0  0  0  0  0  0  0  0  0  0  0  0
   -9.8498    4.2968  -17.2205 O   0  0  0  0  0  0  0  0  0  0  0  0
   -7.7136    5.2443  -17.1378 O   0  0  0  0  0  0  0  0  0  0  0  0
   -8.9571    4.6238   -8.4702 O   0  0  0  0  0  0  0  0  0  0  0  0
   -9.0656    2.5325  -14.7678 H   0  0  0  0  0  0  0  0  0  0  0  0
   -9.1227    2.4161  -12.3213 H   0  0  0  0  0  0  0  0  0  0  0  0
   -8.6076    6.8356  -14.6051 H   0  0  0  0  0  0  0  0  0  0  0  0
   -9.4932    8.7047  -11.8119 H   0  0  0  0  0  0  0  0  0  0  0  0
   -7.9617    8.6191  -10.9071 H   0  0  0  0  0  0  0  0  0  0  0  0
   -7.9442    8.4940  -12.6653 H   0  0  0  0  0  0  0  0  0  0  0  0
  -11.4244    5.6491  -18.9261 H   0  0  0  0  0  0  0  0  0  0  0  0
  -10.0937    6.3111  -19.8948 H   0  0  0  0  0  0  0  0  0  0  0  0
  -10.2066    6.6913  -18.1654 H   0  0  0  0  0  0  0  0  0  0  0  0
  -11.0357    3.4533  -19.4963 H   0  0  0  0  0  0  0  0  0  0  0  0
   -9.4895    2.6299  -19.2156 H   0  0  0  0  0  0  0  0  0  0  0  0
   -9.6464    3.7931  -20.5461 H   0  0  0  0  0  0  0  0  0  0  0  0
   -6.4287    6.2512  -19.2901 H   0  0  0  0  0  0  0  0  0  0  0  0
   -7.9871    7.0542  -19.0188 H   0  0  0  0  0  0  0  0  0  0  0  0
   -7.7692    5.9920  -20.4231 H   0  0  0  0  0  0  0  0  0  0  0  0
   -6.0623    4.0188  -18.8664 H   0  0  0  0  0  0  0  0  0  0  0  0
   -7.3473    3.4321  -19.9396 H   0  0  0  0  0  0  0  0  0  0  0  0
   -7.3110    2.9253  -18.2397 H   0  0  0  0  0  0  0  0  0  0  0  0
   -7.9702    2.1415   -8.1710 H   0  0  0  0  0  0  0  0  0  0  0  0
   -6.9408    3.3080   -7.3099 H   0  0  0  0  0  0  0  0  0  0  0  0
   -7.9578    2.1571   -6.4162 H   0  0  0  0  0  0  0  0  0  0  0  0
   -9.8074    5.4461   -6.0834 H   0  0  0  0  0  0  0  0  0  0  0  0
   -8.0578    5.3154   -6.1068 H   0  0  0  0  0  0  0  0  0  0  0  0
   -9.0111    4.1608   -5.1488 H   0  0  0  0  0  0  0  0  0  0  0  0
  -11.2414    3.8032   -7.3384 H   0  0  0  0  0  0  0  0  0  0  0  0
  -10.5071    2.4480   -8.2225 H   0  0  0  0  0  0  0  0  0  0  0  0
  -10.5458    2.4624   -6.4447 H   0  0  0  0  0  0  0  0  0  0  0  0
  1  5  1  0  0  0  0
  1 24  1  0  0  0  0
  1 25  1  0  0  0  0
  2  3  1  0  0  0  0
  2  5  2  0  0  0  0
  3  7  2  0  0  0  0
  4  5  1  0  0  0  0
  4  6  2  0  0  0  0
  6  7  1  0  0  0  0
  6  8  1  0  0  0  0
  7 22  1  0  0  0  0
  8 12  1  0  0  0  0
  8 21  2  0  0  0  0
  9 22  1  0  0  0  0
  9 23  2  0  0  0  0
  9 26  1  0  0  0  0
 10 11  1  0  0  0  0
 10 13  1  0  0  0  0
 10 14  1  0  0  0  0
 10 24  1  0  0  0  0
 11 15  1  0  0  0  0
 11 16  1  0  0  0  0
 11 25  1  0  0  0  0
 17 20  1  0  0  0  0
 18 20  1  0  0  0  0
 19 20  1  0  0  0  0
 20 26  1  0  0  0  0
 21 22  1  0  0  0  0
  2 27  1  0  0  0  0
  3 28  1  0  0  0  0
  4 29  1  0  0  0  0
 12 30  1  0  0  0  0
 12 31  1  0  0  0  0
 12 32  1  0  0  0  0
 13 33  1  0  0  0  0
 13 34  1  0  0  0  0
 13 35  1  0  0  0  0
 14 36  1  0  0  0  0
 14 37  1  0  0  0  0
 14 38  1  0  0  0  0
 15 39  1  0  0  0  0
 15 40  1  0  0  0  0
 15 41  1  0  0  0  0
 16 42  1  0  0  0  0
 16 43  1  0  0  0  0
 16 44  1  0  0  0  0
 17 45  1  0  0  0  0
 17 46  1  0  0  0  0
 17 47  1  0  0  0  0
 18 48  1  0  0  0  0
 18 49  1  0  0  0  0
 18 50  1  0  0  0  0
 19 51  1  0  0  0  0
 19 52  1  0  0  0  0
 19 53  1  0  0  0  0
M  END
> <id>
EN300-4722386

> <smiles>
CC1=NN(C(=O)OC(C)(C)C)C=2C=CC(=CC12)B3OC(C)(C)C(C)(C)O3

> <MDLNUMBER>
MFCD13195073

> <IUPAC Name>
tert-butyl 3-methyl-5-(tetramethyl-1,3,2-dioxaborolan-2-yl)-1H-indazole-1-carboxylate

> <CAS>
864770-82-1

> <URL>
https://www.enaminestore.com/catalog/EN300-4722386

> <ROCS_ShapeQuery>
_x0404_0B

> <ROCS_TanimotoCombo>
0.442 

> <ROCS_ShapeTanimoto>
0.391 

> <ROCS_ColorTanimoto>
0.051 

> <ROCS_RefTversky>
0.343 

> <ROCS_RefColorTversky>
0.056 

> <ROCS_RefTverskyCombo>
0.399 

> <ROCS_FitTversky>
1.556 

> <ROCS_FitColorTversky>
0.355 

> <ROCS_FitTverskyCombo>
1.912 

> <ROCS_ColorScore>
-4.052

> <ROCS_Overlap>
2294.439

> <ROCS_Rank>
180                 

$$$$
untitled-dbase-172263_0
  -OEChem-08222312023D

 35 38  0     1  0  0  0  0  0999 V2000
   -9.1100    7.1393  -10.7205 C   0  0  0  0  0  0  0  0  0  0  0  0
   -8.8858    6.0567   -9.8729 C   0  0  0  0  0  0  0  0  0  0  0  0
   -8.9688    6.9881  -12.0968 C   0  0  0  0  0  0  0  0  0  0  0  0
   -7.7753    2.3112  -11.4368 C   0  0  0  0  0  0  0  0  0  0  0  0
   -7.9197    2.4753  -10.0623 C   0  0  0  0  0  0  0  0  0  0  0  0
   -8.5165    4.8068  -10.3923 C   0  0  0  0  0  0  0  0  0  0  0  0
   -8.3719    4.6460  -11.7932 C   0  0  0  0  0  0  0  0  0  0  0  0
   -8.6016    5.7463  -12.6310 C   0  0  0  0  0  0  0  0  0  0  0  0
   -8.0010    3.3920  -12.2985 C   0  0  0  0  0  0  0  0  0  0  0  0
   -8.2880    3.7142   -9.5423 C   0  0  0  0  0  0  0  0  0  0  0  0
   -8.4568    5.6023  -14.0967 C   0  0  0  0  0  0  0  0  0  0  0  0
   -7.8452    3.2006  -13.7572 C   0  0  0  0  0  0  0  0  0  0  0  0
   -8.1090    5.1544  -18.7175 C   0  0  0  0  0  0  0  0  0  0  0  0
   -6.9180    5.0173  -16.5133 C   0  0  0  0  0  0  0  0  0  0  0  0
   -9.2247    4.3017  -18.1621 C   0  0  0  0  0  0  0  0  0  0  0  0
   -9.3622    4.4758  -16.6606 C   0  0  0  0  0  0  0  0  0  0  0  0
   -8.0402    4.1385  -15.9901 C   0  0  2  0  0  0  0  0  0  0  0  0
   -7.0613    5.4192  -17.8409 N   0  0  0  0  0  0  0  0  0  0  0  0
   -8.1168    4.3203  -14.5650 N   0  0  0  0  0  0  0  0  0  0  0  0
   -8.6283    6.5862  -14.8131 O   0  0  0  0  0  0  0  0  0  0  0  0
   -7.4881    2.1047  -14.1845 O   0  0  0  0  0  0  0  0  0  0  0  0
   -8.1158    5.5382  -19.8870 O   0  0  0  0  0  0  0  0  0  0  0  0
   -5.9203    5.2922  -15.8470 O   0  0  0  0  0  0  0  0  0  0  0  0
   -8.4471    3.7893   -7.6410 Br  0  0  0  0  0  0  0  0  0  0  0  0
   -9.3952    8.1025  -10.3071 H   0  0  0  0  0  0  0  0  0  0  0  0
   -9.0112    6.2359   -8.8093 H   0  0  0  0  0  0  0  0  0  0  0  0
   -9.1500    7.8483  -12.7356 H   0  0  0  0  0  0  0  0  0  0  0  0
   -7.4881    1.3345  -11.8170 H   0  0  0  0  0  0  0  0  0  0  0  0
   -7.7394    1.6211   -9.4141 H   0  0  0  0  0  0  0  0  0  0  0  0
  -10.1603    4.5905  -18.6530 H   0  0  0  0  0  0  0  0  0  0  0  0
   -9.0134    3.2570  -18.4167 H   0  0  0  0  0  0  0  0  0  0  0  0
   -9.6502    5.5121  -16.4395 H   0  0  0  0  0  0  0  0  0  0  0  0
  -10.1596    3.8233  -16.2866 H   0  0  0  0  0  0  0  0  0  0  0  0
   -7.7668    3.0930  -16.1809 H   0  0  0  0  0  0  0  0  0  0  0  0
   -6.3010    5.9789  -18.2175 H   0  0  0  0  0  0  0  0  0  0  0  0
  1  2  1  0  0  0  0
  1  3  2  0  0  0  0
  2  6  2  0  0  0  0
  3  8  1  0  0  0  0
  4  5  1  0  0  0  0
  4  9  2  0  0  0  0
  5 10  2  0  0  0  0
  6  7  1  0  0  0  0
  6 10  1  0  0  0  0
  7  8  2  0  0  0  0
  7  9  1  0  0  0  0
  8 11  1  0  0  0  0
  9 12  1  0  0  0  0
 10 24  1  0  0  0  0
 11 19  1  0  0  0  0
 11 20  2  0  0  0  0
 12 19  1  0  0  0  0
 12 21  2  0  0  0  0
 13 15  1  0  0  0  0
 13 18  1  0  0  0  0
 13 22  2  0  0  0  0
 14 17  1  0  0  0  0
 14 18  1  0  0  0  0
 14 23  2  0  0  0  0
 15 16  1  0  0  0  0
 16 17  1  0  0  0  0
 17 19  1  0  0  0  0
  1 25  1  0  0  0  0
  2 26  1  0  0  0  0
  3 27  1  0  0  0  0
  4 28  1  0  0  0  0
  5 29  1  0  0  0  0
 15 30  1  0  0  0  0
 15 31  1  0  0  0  0
 16 32  1  0  0  0  0
 16 33  1  0  0  0  0
 17 34  1  0  0  0  0
 18 35  1  0  0  0  0
M  END
> <id>
EN300-43346090

> <smiles>
BrC=1C=CC=2C(=O)N(C3CCC(=O)NC3=O)C(=O)C4=CC=CC1C42

> <MDLNUMBER>
MFCD34602278

> <IUPAC Name>
10-bromo-3-(2,6-dioxopiperidin-3-yl)-3-azatricyclo[7.3.1.0,5,13]trideca-1(13),5,7,9,11-pentaene-2,4-dione

> <URL>
https://www.enaminestore.com/catalog/EN300-43346090

> <ROCS_ShapeQuery>
_x0404_0B

> <ROCS_TanimotoCombo>
0.442 

> <ROCS_ShapeTanimoto>
0.359 

> <ROCS_ColorTanimoto>
0.083 

> <ROCS_RefTversky>
0.320 

> <ROCS_RefColorTversky>
0.091 

> <ROCS_RefTverskyCombo>
0.411 

> <ROCS_FitTversky>
1.508 

> <ROCS_FitColorTversky>
0.496 

> <ROCS_FitTverskyCombo>
2.003 

> <ROCS_ColorScore>
-6.588

> <ROCS_Overlap>
2139.050

> <ROCS_Rank>
181                 

$$$$
untitled-dbase-154777_134
  -OEChem-08222312023D

 50 52  0     0  0  0  0  0  0999 V2000
   -8.4139    4.8412  -15.3158 B   0  0  0  0  0  0  0  0  0  0  0  0
   -8.4381    2.7794  -13.8379 C   0  0  0  0  0  0  0  0  0  0  0  0
   -8.5027    2.1156  -12.6152 C   0  0  0  0  0  0  0  0  0  0  0  0
   -8.7014    6.2597  -12.3521 C   0  0  0  0  0  0  0  0  0  0  0  0
   -8.4939    4.1752  -13.8958 C   0  0  0  0  0  0  0  0  0  0  0  0
   -8.6169    4.8998  -12.6973 C   0  0  0  0  0  0  0  0  0  0  0  0
   -8.6810    4.2230  -11.4803 C   0  0  0  0  0  0  0  0  0  0  0  0
   -8.6252    2.8225  -11.4140 C   0  0  0  0  0  0  0  0  0  0  0  0
   -8.8979    5.0523   -9.1229 C   0  0  0  0  0  0  0  0  0  0  0  0
   -9.0406    5.5315  -17.4076 C   0  0  0  0  0  0  0  0  0  0  0  0
   -7.5687    5.9772  -17.1158 C   0  0  0  0  0  0  0  0  0  0  0  0
  -10.0899    6.6631  -17.3284 C   0  0  0  0  0  0  0  0  0  0  0  0
   -9.2360    4.8007  -18.7434 C   0  0  0  0  0  0  0  0  0  0  0  0
   -7.2834    7.4614  -17.3851 C   0  0  0  0  0  0  0  0  0  0  0  0
   -6.4834    5.1473  -17.8377 C   0  0  0  0  0  0  0  0  0  0  0  0
  -11.0602    3.7636   -7.8165 C   0  0  0  0  0  0  0  0  0  0  0  0
   -9.4513    1.8763   -7.4178 C   0  0  0  0  0  0  0  0  0  0  0  0
   -8.9920    4.1405   -6.4326 C   0  0  0  0  0  0  0  0  0  0  0  0
   -9.5938    3.3839   -7.6159 C   0  0  0  0  0  0  0  0  0  0  0  0
   -8.8100    6.4559  -11.0401 N   0  0  0  0  0  0  0  0  0  0  0  0
   -8.7977    5.2075  -10.5080 N   0  0  0  0  0  0  0  0  0  0  0  0
   -8.9959    6.0179   -8.3837 O   0  0  0  0  0  0  0  0  0  0  0  0
   -9.3422    4.5914  -16.3265 O   0  0  0  0  0  0  0  0  0  0  0  0
   -7.4083    5.7362  -15.6806 O   0  0  0  0  0  0  0  0  0  0  0  0
   -8.8671    3.7339   -8.7974 O   0  0  0  0  0  0  0  0  0  0  0  0
   -8.6840    2.1465  -10.2613 F   0  0  0  0  0  0  0  0  0  0  0  0
   -8.3429    2.1768  -14.7403 H   0  0  0  0  0  0  0  0  0  0  0  0
   -8.4575    1.0297  -12.5914 H   0  0  0  0  0  0  0  0  0  0  0  0
   -8.6887    7.1256  -12.9991 H   0  0  0  0  0  0  0  0  0  0  0  0
  -11.0676    6.2512  -17.5451 H   0  0  0  0  0  0  0  0  0  0  0  0
   -9.8395    7.4255  -18.0554 H   0  0  0  0  0  0  0  0  0  0  0  0
  -10.0778    7.0839  -16.3307 H   0  0  0  0  0  0  0  0  0  0  0  0
  -10.2820    4.5318  -18.8583 H   0  0  0  0  0  0  0  0  0  0  0  0
   -8.6267    3.9017  -18.7557 H   0  0  0  0  0  0  0  0  0  0  0  0
   -8.9372    5.4530  -19.5589 H   0  0  0  0  0  0  0  0  0  0  0  0
   -6.2438    7.6768  -17.1558 H   0  0  0  0  0  0  0  0  0  0  0  0
   -7.9270    8.0723  -16.7589 H   0  0  0  0  0  0  0  0  0  0  0  0
   -7.4779    7.6827  -18.4305 H   0  0  0  0  0  0  0  0  0  0  0  0
   -5.5087    5.5352  -17.5696 H   0  0  0  0  0  0  0  0  0  0  0  0
   -6.6332    5.2283  -18.9070 H   0  0  0  0  0  0  0  0  0  0  0  0
   -6.5688    4.1132  -17.5285 H   0  0  0  0  0  0  0  0  0  0  0  0
  -11.1667    4.8450   -7.9590 H   0  0  0  0  0  0  0  0  0  0  0  0
  -11.4938    3.2543   -8.6833 H   0  0  0  0  0  0  0  0  0  0  0  0
  -11.6548    3.5084   -6.9319 H   0  0  0  0  0  0  0  0  0  0  0  0
   -8.4008    1.5993   -7.2735 H   0  0  0  0  0  0  0  0  0  0  0  0
   -9.7950    1.3319   -8.3048 H   0  0  0  0  0  0  0  0  0  0  0  0
  -10.0241    1.5265   -6.5529 H   0  0  0  0  0  0  0  0  0  0  0  0
   -7.9402    3.8683   -6.2884 H   0  0  0  0  0  0  0  0  0  0  0  0
   -9.0522    5.2244   -6.5743 H   0  0  0  0  0  0  0  0  0  0  0  0
   -9.5088    3.8819   -5.5012 H   0  0  0  0  0  0  0  0  0  0  0  0
  1  5  1  0  0  0  0
  1 23  1  0  0  0  0
  1 24  1  0  0  0  0
  2  3  2  0  0  0  0
  2  5  1  0  0  0  0
  3  8  1  0  0  0  0
  4  6  1  0  0  0  0
  4 20  2  0  0  0  0
  5  6  2  0  0  0  0
  6  7  1  0  0  0  0
  7  8  2  0  0  0  0
  7 21  1  0  0  0  0
  8 26  1  0  0  0  0
  9 21  1  0  0  0  0
  9 22  2  0  0  0  0
  9 25  1  0  0  0  0
 10 11  1  0  0  0  0
 10 12  1  0  0  0  0
 10 13  1  0  0  0  0
 10 23  1  0  0  0  0
 11 14  1  0  0  0  0
 11 15  1  0  0  0  0
 11 24  1  0  0  0  0
 16 19  1  0  0  0  0
 17 19  1  0  0  0  0
 18 19  1  0  0  0  0
 19 25  1  0  0  0  0
 20 21  1  0  0  0  0
  2 27  1  0  0  0  0
  3 28  1  0  0  0  0
  4 29  1  0  0  0  0
 12 30  1  0  0  0  0
 12 31  1  0  0  0  0
 12 32  1  0  0  0  0
 13 33  1  0  0  0  0
 13 34  1  0  0  0  0
 13 35  1  0  0  0  0
 14 36  1  0  0  0  0
 14 37  1  0  0  0  0
 14 38  1  0  0  0  0
 15 39  1  0  0  0  0
 15 40  1  0  0  0  0
 15 41  1  0  0  0  0
 16 42  1  0  0  0  0
 16 43  1  0  0  0  0
 16 44  1  0  0  0  0
 17 45  1  0  0  0  0
 17 46  1  0  0  0  0
 17 47  1  0  0  0  0
 18 48  1  0  0  0  0
 18 49  1  0  0  0  0
 18 50  1  0  0  0  0
M  END
> <id>
EN300-26864954

> <smiles>
CC(C)(C)OC(=O)N1N=CC=2C(=CC=C(F)C12)B3OC(C)(C)C(C)(C)O3

> <IUPAC Name>
tert-butyl 7-fluoro-4-(4,4,5,5-tetramethyl-1,3,2-dioxaborolan-2-yl)-1H-indazole-1-carboxylate

> <URL>
https://www.enaminestore.com/catalog/EN300-26864954

> <ROCS_ShapeQuery>
_x0404_0B

> <ROCS_TanimotoCombo>
0.442 

> <ROCS_ShapeTanimoto>
0.385 

> <ROCS_ColorTanimoto>
0.057 

> <ROCS_RefTversky>
0.339 

> <ROCS_RefColorTversky>
0.063 

> <ROCS_RefTverskyCombo>
0.402 

> <ROCS_FitTversky>
1.530 

> <ROCS_FitColorTversky>
0.398 

> <ROCS_FitTverskyCombo>
1.928 

> <ROCS_ColorScore>
-4.541

> <ROCS_Overlap>
2269.371

> <ROCS_Rank>
182                 

$$$$
untitled-dbase-91468_822
  -OEChem-08222312023D

 49 51  0     0  0  0  0  0  0999 V2000
  -10.3124    4.1301  -18.0413 C   0  0  0  0  0  0  0  0  0  0  0  0
  -10.0790    4.7362  -16.8119 C   0  0  0  0  0  0  0  0  0  0  0  0
   -9.2302    3.9358  -18.8845 C   0  0  0  0  0  0  0  0  0  0  0  0
   -8.7887    5.1239  -16.4680 C   0  0  0  0  0  0  0  0  0  0  0  0
   -7.7747    4.8850  -17.3815 C   0  0  0  0  0  0  0  0  0  0  0  0
   -8.8590    5.2541   -8.7412 C   0  0  0  0  0  0  0  0  0  0  0  0
   -8.0174    6.5389  -12.0477 C   0  0  0  0  0  0  0  0  0  0  0  0
   -8.2392    4.0226  -12.0711 C   0  0  0  0  0  0  0  0  0  0  0  0
   -9.4986    5.4020  -13.8818 C   0  0  0  0  0  0  0  0  0  0  0  0
   -7.3776    5.2173  -14.1780 C   0  0  0  0  0  0  0  0  0  0  0  0
   -9.0040    6.5927  -10.8822 C   0  0  0  0  0  0  0  0  0  0  0  0
   -9.2337    4.1225  -10.9181 C   0  0  0  0  0  0  0  0  0  0  0  0
   -8.5351    5.8226  -15.0450 C   0  0  0  0  0  0  0  0  0  0  0  0
   -8.2816    5.3009  -12.9188 C   0  0  0  0  0  0  0  0  0  0  0  0
  -10.4969    3.4450   -7.7763 C   0  0  0  0  0  0  0  0  0  0  0  0
   -8.5900    1.8107   -7.7287 C   0  0  0  0  0  0  0  0  0  0  0  0
   -8.7060    3.6475   -6.0195 C   0  0  0  0  0  0  0  0  0  0  0  0
   -9.0135    3.2538   -7.4636 C   0  0  0  0  0  0  0  0  0  0  0  0
   -7.9629    4.2989  -18.5852 N   0  0  0  0  0  0  0  0  0  0  0  0
   -9.0027    5.3332  -10.1298 N   0  0  0  0  0  0  0  0  0  0  0  0
   -9.2321    6.1235   -7.9554 O   0  0  0  0  0  0  0  0  0  0  0  0
   -8.4248    7.2617  -15.2086 O   0  0  0  0  0  0  0  0  0  0  0  0
   -8.2515    4.0946   -8.3375 O   0  0  0  0  0  0  0  0  0  0  0  0
   -5.9840    5.3909  -16.9737 Br  0  0  0  0  0  0  0  0  0  0  0  0
  -11.3099    3.8197  -18.3306 H   0  0  0  0  0  0  0  0  0  0  0  0
  -10.9073    4.9023  -16.1288 H   0  0  0  0  0  0  0  0  0  0  0  0
   -9.3592    3.4675  -19.8546 H   0  0  0  0  0  0  0  0  0  0  0  0
   -8.0992    7.4633  -12.6296 H   0  0  0  0  0  0  0  0  0  0  0  0
   -6.9934    6.5038  -11.6538 H   0  0  0  0  0  0  0  0  0  0  0  0
   -7.2285    3.8706  -11.6714 H   0  0  0  0  0  0  0  0  0  0  0  0
   -8.4745    3.1403  -12.6785 H   0  0  0  0  0  0  0  0  0  0  0  0
  -10.2528    6.1500  -13.6160 H   0  0  0  0  0  0  0  0  0  0  0  0
  -10.0202    4.4527  -14.0584 H   0  0  0  0  0  0  0  0  0  0  0  0
   -7.0916    4.1987  -14.4697 H   0  0  0  0  0  0  0  0  0  0  0  0
   -6.4630    5.8190  -14.1392 H   0  0  0  0  0  0  0  0  0  0  0  0
   -8.7620    7.4430  -10.2391 H   0  0  0  0  0  0  0  0  0  0  0  0
  -10.0267    6.7418  -11.2470 H   0  0  0  0  0  0  0  0  0  0  0  0
  -10.2612    4.1772  -11.2966 H   0  0  0  0  0  0  0  0  0  0  0  0
   -9.1623    3.2304  -10.2879 H   0  0  0  0  0  0  0  0  0  0  0  0
  -10.8049    4.4796   -7.5872 H   0  0  0  0  0  0  0  0  0  0  0  0
  -10.7243    3.1994   -8.8187 H   0  0  0  0  0  0  0  0  0  0  0  0
  -11.1174    2.8146   -7.1289 H   0  0  0  0  0  0  0  0  0  0  0  0
   -7.5263    1.6691   -7.5056 H   0  0  0  0  0  0  0  0  0  0  0  0
   -8.7206    1.5536   -8.7860 H   0  0  0  0  0  0  0  0  0  0  0  0
   -9.1679    1.1028   -7.1258 H   0  0  0  0  0  0  0  0  0  0  0  0
   -7.6420    3.5105   -5.7950 H   0  0  0  0  0  0  0  0  0  0  0  0
   -8.9694    4.6915   -5.8212 H   0  0  0  0  0  0  0  0  0  0  0  0
   -9.2549    3.0103   -5.3166 H   0  0  0  0  0  0  0  0  0  0  0  0
   -9.2656    7.5368  -15.5889 H   0  0  0  0  0  0  0  0  0  0  0  0
  1  2  1  0  0  0  0
  1  3  2  0  0  0  0
  2  4  2  0  0  0  0
  3 19  1  0  0  0  0
  4  5  1  0  0  0  0
  4 13  1  0  0  0  0
  5 19  2  0  0  0  0
  5 24  1  0  0  0  0
  6 20  1  0  0  0  0
  6 21  2  0  0  0  0
  6 23  1  0  0  0  0
  7 11  1  0  0  0  0
  7 14  1  0  0  0  0
  8 12  1  0  0  0  0
  8 14  1  0  0  0  0
  9 13  1  0  0  0  0
  9 14  1  0  0  0  0
 10 13  1  0  0  0  0
 10 14  1  0  0  0  0
 11 20  1  0  0  0  0
 12 20  1  0  0  0  0
 13 22  1  0  0  0  0
 15 18  1  0  0  0  0
 16 18  1  0  0  0  0
 17 18  1  0  0  0  0
 18 23  1  0  0  0  0
  1 25  1  0  0  0  0
  2 26  1  0  0  0  0
  3 27  1  0  0  0  0
  7 28  1  0  0  0  0
  7 29  1  0  0  0  0
  8 30  1  0  0  0  0
  8 31  1  0  0  0  0
  9 32  1  0  0  0  0
  9 33  1  0  0  0  0
 10 34  1  0  0  0  0
 10 35  1  0  0  0  0
 11 36  1  0  0  0  0
 11 37  1  0  0  0  0
 12 38  1  0  0  0  0
 12 39  1  0  0  0  0
 15 40  1  0  0  0  0
 15 41  1  0  0  0  0
 15 42  1  0  0  0  0
 16 43  1  0  0  0  0
 16 44  1  0  0  0  0
 16 45  1  0  0  0  0
 17 46  1  0  0  0  0
 17 47  1  0  0  0  0
 17 48  1  0  0  0  0
 22 49  1  0  0  0  0
M  END
> <id>
EN300-7428199

> <smiles>
CC(C)(C)OC(=O)N1CCC2(CC(O)(C2)C=3C=CC=NC3Br)CC1

> <IUPAC Name>
tert-butyl 2-(2-bromopyridin-3-yl)-2-hydroxy-7-azaspiro[3.5]nonane-7-carboxylate

> <CAS>
2309448-99-3

> <URL>
https://www.enaminestore.com/catalog/EN300-7428199

> <ROCS_ShapeQuery>
_x0404_0B

> <ROCS_TanimotoCombo>
0.442 

> <ROCS_ShapeTanimoto>
0.381 

> <ROCS_ColorTanimoto>
0.062 

> <ROCS_RefTversky>
0.331 

> <ROCS_RefColorTversky>
0.068 

> <ROCS_RefTverskyCombo>
0.399 

> <ROCS_FitTversky>
1.639 

> <ROCS_FitColorTversky>
0.398 

> <ROCS_FitTverskyCombo>
2.037 

> <ROCS_ColorScore>
-4.906

> <ROCS_Overlap>
2212.822

> <ROCS_Rank>
183                 

$$$$
untitled-dbase-117858_139
  -OEChem-08222312023D

 47 49  0     0  0  0  0  0  0999 V2000
   -8.9192    5.8220  -12.1776 C   0  0  0  0  0  0  0  0  0  0  0  0
   -8.5388    4.4711  -10.5038 C   0  0  0  0  0  0  0  0  0  0  0  0
   -8.4066    5.4104  -15.8276 C   0  0  0  0  0  0  0  0  0  0  0  0
   -9.1518    6.2672  -13.5741 C   0  0  0  0  0  0  0  0  0  0  0  0
   -9.5457    2.4031   -9.3718 C   0  0  0  0  0  0  0  0  0  0  0  0
   -7.3631    3.3931   -8.4964 C   0  0  0  0  0  0  0  0  0  0  0  0
   -8.6043    3.4365  -12.8044 C   0  0  0  0  0  0  0  0  0  0  0  0
  -10.1756    2.7870   -8.0339 C   0  0  0  0  0  0  0  0  0  0  0  0
   -8.1115    3.7233   -7.2058 C   0  0  0  0  0  0  0  0  0  0  0  0
   -9.2681    3.8231  -14.1225 C   0  0  0  0  0  0  0  0  0  0  0  0
   -8.2702    3.1872   -9.7205 C   0  0  0  0  0  0  0  0  0  0  0  0
   -7.3825    5.3508  -18.4993 C   0  0  0  0  0  0  0  0  0  0  0  0
   -8.1305    2.9532  -18.5353 C   0  0  0  0  0  0  0  0  0  0  0  0
   -9.8219    4.7868  -18.2429 C   0  0  0  0  0  0  0  0  0  0  0  0
   -8.3897    4.3406  -17.9519 C   0  0  0  0  0  0  0  0  0  0  0  0
   -8.9142    6.5415  -11.0742 N   0  0  0  0  0  0  0  0  0  0  0  0
   -8.6721    5.6847  -10.0145 N   0  0  0  0  0  0  0  0  0  0  0  0
   -8.6871    4.5163  -11.8491 N   0  0  0  0  0  0  0  0  0  0  0  0
   -9.1944    2.7763   -6.9519 N   0  0  0  0  0  0  0  0  0  0  0  0
   -8.8783    5.1796  -14.5302 N   0  0  0  0  0  0  0  0  0  0  0  0
   -8.1762    6.5243  -16.2945 O   0  0  0  0  0  0  0  0  0  0  0  0
   -8.2196    4.2506  -16.5326 O   0  0  0  0  0  0  0  0  0  0  0  0
  -10.1798    6.6248  -13.6831 H   0  0  0  0  0  0  0  0  0  0  0  0
   -8.4754    7.0925  -13.8220 H   0  0  0  0  0  0  0  0  0  0  0  0
   -9.3267    1.3139   -9.3712 H   0  0  0  0  0  0  0  0  0  0  0  0
  -10.3000    2.5369  -10.1788 H   0  0  0  0  0  0  0  0  0  0  0  0
   -6.6289    4.2025   -8.7062 H   0  0  0  0  0  0  0  0  0  0  0  0
   -6.7418    2.4864   -8.3345 H   0  0  0  0  0  0  0  0  0  0  0  0
   -9.1051    2.5724  -12.3538 H   0  0  0  0  0  0  0  0  0  0  0  0
   -7.5491    3.1952  -12.9664 H   0  0  0  0  0  0  0  0  0  0  0  0
  -10.6089    3.7916   -8.1104 H   0  0  0  0  0  0  0  0  0  0  0  0
  -11.0038    2.1073   -7.7935 H   0  0  0  0  0  0  0  0  0  0  0  0
   -7.4176    3.7337   -6.3549 H   0  0  0  0  0  0  0  0  0  0  0  0
   -8.5326    4.7334   -7.2773 H   0  0  0  0  0  0  0  0  0  0  0  0
   -8.9456    3.1491  -14.9257 H   0  0  0  0  0  0  0  0  0  0  0  0
  -10.3553    3.7331  -14.0366 H   0  0  0  0  0  0  0  0  0  0  0  0
   -7.6776    2.5251  -10.4490 H   0  0  0  0  0  0  0  0  0  0  0  0
   -7.5652    6.3480  -18.0829 H   0  0  0  0  0  0  0  0  0  0  0  0
   -6.3528    5.0603  -18.2668 H   0  0  0  0  0  0  0  0  0  0  0  0
   -7.4775    5.4478  -19.5869 H   0  0  0  0  0  0  0  0  0  0  0  0
   -8.8509    2.2252  -18.1453 H   0  0  0  0  0  0  0  0  0  0  0  0
   -7.1374    2.5887  -18.2488 H   0  0  0  0  0  0  0  0  0  0  0  0
   -8.1970    2.9556  -19.6281 H   0  0  0  0  0  0  0  0  0  0  0  0
  -10.5446    4.0623  -17.8504 H   0  0  0  0  0  0  0  0  0  0  0  0
  -10.0375    5.7645  -17.8001 H   0  0  0  0  0  0  0  0  0  0  0  0
   -9.9996    4.8467  -19.3227 H   0  0  0  0  0  0  0  0  0  0  0  0
   -9.6599    3.0319   -6.0806 H   0  0  0  0  0  0  0  0  0  0  0  0
  1  4  1  0  0  0  0
  1 16  2  0  0  0  0
  1 18  1  0  0  0  0
  2 11  1  0  0  0  0
  2 17  2  0  0  0  0
  2 18  1  0  0  0  0
  3 20  1  0  0  0  0
  3 21  2  0  0  0  0
  3 22  1  0  0  0  0
  4 20  1  0  0  0  0
  5  8  1  0  0  0  0
  5 11  1  0  0  0  0
  6  9  1  0  0  0  0
  6 11  1  0  0  0  0
  7 10  1  0  0  0  0
  7 18  1  0  0  0  0
  8 19  1  0  0  0  0
  9 19  1  0  0  0  0
 10 20  1  0  0  0  0
 12 15  1  0  0  0  0
 13 15  1  0  0  0  0
 14 15  1  0  0  0  0
 15 22  1  0  0  0  0
 16 17  1  0  0  0  0
  4 23  1  0  0  0  0
  4 24  1  0  0  0  0
  5 25  1  0  0  0  0
  5 26  1  0  0  0  0
  6 27  1  0  0  0  0
  6 28  1  0  0  0  0
  7 29  1  0  0  0  0
  7 30  1  0  0  0  0
  8 31  1  0  0  0  0
  8 32  1  0  0  0  0
  9 33  1  0  0  0  0
  9 34  1  0  0  0  0
 10 35  1  0  0  0  0
 10 36  1  0  0  0  0
 11 37  1  0  0  0  0
 12 38  1  0  0  0  0
 12 39  1  0  0  0  0
 12 40  1  0  0  0  0
 13 41  1  0  0  0  0
 13 42  1  0  0  0  0
 13 43  1  0  0  0  0
 14 44  1  0  0  0  0
 14 45  1  0  0  0  0
 14 46  1  0  0  0  0
 19 47  1  0  0  0  0
M  END
> <id>
EN300-204439

> <smiles>
Cl.CC(C)(C)OC(=O)N1CCN2C(=NN=C2C1)C3CCNCC3

> <MDLNUMBER>
MFCD28383802

> <IUPAC Name>
tert-butyl 3-(piperidin-4-yl)-5H,6H,7H,8H-[1,2,4]triazolo[4,3-a]pyrazine-7-carboxylate hydrochloride

> <CAS>
1803561-25-2

> <Purity>
95

> <URL>
https://www.enaminestore.com/catalog/EN300-204439

> <Saltdate>
Cl

> <ROCS_ShapeQuery>
_x0404_0B

> <ROCS_TanimotoCombo>
0.442 

> <ROCS_ShapeTanimoto>
0.354 

> <ROCS_ColorTanimoto>
0.088 

> <ROCS_RefTversky>
0.312 

> <ROCS_RefColorTversky>
0.095 

> <ROCS_RefTverskyCombo>
0.407 

> <ROCS_FitTversky>
1.614 

> <ROCS_FitColorTversky>
0.543 

> <ROCS_FitTverskyCombo>
2.157 

> <ROCS_ColorScore>
-6.854

> <ROCS_Overlap>
2083.379

> <ROCS_Rank>
184                 

$$$$
untitled-dbase-12954_139
  -OEChem-08222312023D

 47 49  0     0  0  0  0  0  0999 V2000
   -8.9192    5.8220  -12.1776 C   0  0  0  0  0  0  0  0  0  0  0  0
   -8.5388    4.4711  -10.5038 C   0  0  0  0  0  0  0  0  0  0  0  0
   -8.4066    5.4104  -15.8276 C   0  0  0  0  0  0  0  0  0  0  0  0
   -9.1518    6.2672  -13.5741 C   0  0  0  0  0  0  0  0  0  0  0  0
   -9.5457    2.4031   -9.3718 C   0  0  0  0  0  0  0  0  0  0  0  0
   -7.3631    3.3931   -8.4964 C   0  0  0  0  0  0  0  0  0  0  0  0
   -8.6043    3.4365  -12.8044 C   0  0  0  0  0  0  0  0  0  0  0  0
  -10.1756    2.7870   -8.0339 C   0  0  0  0  0  0  0  0  0  0  0  0
   -8.1115    3.7233   -7.2058 C   0  0  0  0  0  0  0  0  0  0  0  0
   -9.2681    3.8231  -14.1225 C   0  0  0  0  0  0  0  0  0  0  0  0
   -8.2702    3.1872   -9.7205 C   0  0  0  0  0  0  0  0  0  0  0  0
   -7.3825    5.3508  -18.4993 C   0  0  0  0  0  0  0  0  0  0  0  0
   -8.1305    2.9532  -18.5353 C   0  0  0  0  0  0  0  0  0  0  0  0
   -9.8219    4.7868  -18.2429 C   0  0  0  0  0  0  0  0  0  0  0  0
   -8.3897    4.3406  -17.9519 C   0  0  0  0  0  0  0  0  0  0  0  0
   -8.9142    6.5415  -11.0742 N   0  0  0  0  0  0  0  0  0  0  0  0
   -8.6721    5.6847  -10.0145 N   0  0  0  0  0  0  0  0  0  0  0  0
   -8.6871    4.5163  -11.8491 N   0  0  0  0  0  0  0  0  0  0  0  0
   -9.1944    2.7763   -6.9519 N   0  0  0  0  0  0  0  0  0  0  0  0
   -8.8783    5.1796  -14.5302 N   0  0  0  0  0  0  0  0  0  0  0  0
   -8.1762    6.5243  -16.2945 O   0  0  0  0  0  0  0  0  0  0  0  0
   -8.2196    4.2506  -16.5326 O   0  0  0  0  0  0  0  0  0  0  0  0
  -10.1798    6.6248  -13.6831 H   0  0  0  0  0  0  0  0  0  0  0  0
   -8.4754    7.0925  -13.8220 H   0  0  0  0  0  0  0  0  0  0  0  0
   -9.3267    1.3139   -9.3712 H   0  0  0  0  0  0  0  0  0  0  0  0
  -10.3000    2.5369  -10.1788 H   0  0  0  0  0  0  0  0  0  0  0  0
   -6.6289    4.2025   -8.7062 H   0  0  0  0  0  0  0  0  0  0  0  0
   -6.7418    2.4864   -8.3345 H   0  0  0  0  0  0  0  0  0  0  0  0
   -9.1051    2.5724  -12.3538 H   0  0  0  0  0  0  0  0  0  0  0  0
   -7.5491    3.1952  -12.9664 H   0  0  0  0  0  0  0  0  0  0  0  0
  -10.6089    3.7916   -8.1104 H   0  0  0  0  0  0  0  0  0  0  0  0
  -11.0038    2.1073   -7.7935 H   0  0  0  0  0  0  0  0  0  0  0  0
   -7.4176    3.7337   -6.3549 H   0  0  0  0  0  0  0  0  0  0  0  0
   -8.5326    4.7334   -7.2773 H   0  0  0  0  0  0  0  0  0  0  0  0
   -8.9456    3.1491  -14.9257 H   0  0  0  0  0  0  0  0  0  0  0  0
  -10.3553    3.7331  -14.0366 H   0  0  0  0  0  0  0  0  0  0  0  0
   -7.6776    2.5251  -10.4490 H   0  0  0  0  0  0  0  0  0  0  0  0
   -7.5652    6.3480  -18.0829 H   0  0  0  0  0  0  0  0  0  0  0  0
   -6.3528    5.0603  -18.2668 H   0  0  0  0  0  0  0  0  0  0  0  0
   -7.4775    5.4478  -19.5869 H   0  0  0  0  0  0  0  0  0  0  0  0
   -8.8509    2.2252  -18.1453 H   0  0  0  0  0  0  0  0  0  0  0  0
   -7.1374    2.5887  -18.2488 H   0  0  0  0  0  0  0  0  0  0  0  0
   -8.1970    2.9556  -19.6281 H   0  0  0  0  0  0  0  0  0  0  0  0
  -10.5446    4.0623  -17.8504 H   0  0  0  0  0  0  0  0  0  0  0  0
  -10.0375    5.7645  -17.8001 H   0  0  0  0  0  0  0  0  0  0  0  0
   -9.9996    4.8467  -19.3227 H   0  0  0  0  0  0  0  0  0  0  0  0
   -9.6599    3.0319   -6.0806 H   0  0  0  0  0  0  0  0  0  0  0  0
  1  4  1  0  0  0  0
  1 16  2  0  0  0  0
  1 18  1  0  0  0  0
  2 11  1  0  0  0  0
  2 17  2  0  0  0  0
  2 18  1  0  0  0  0
  3 20  1  0  0  0  0
  3 21  2  0  0  0  0
  3 22  1  0  0  0  0
  4 20  1  0  0  0  0
  5  8  1  0  0  0  0
  5 11  1  0  0  0  0
  6  9  1  0  0  0  0
  6 11  1  0  0  0  0
  7 10  1  0  0  0  0
  7 18  1  0  0  0  0
  8 19  1  0  0  0  0
  9 19  1  0  0  0  0
 10 20  1  0  0  0  0
 12 15  1  0  0  0  0
 13 15  1  0  0  0  0
 14 15  1  0  0  0  0
 15 22  1  0  0  0  0
 16 17  1  0  0  0  0
  4 23  1  0  0  0  0
  4 24  1  0  0  0  0
  5 25  1  0  0  0  0
  5 26  1  0  0  0  0
  6 27  1  0  0  0  0
  6 28  1  0  0  0  0
  7 29  1  0  0  0  0
  7 30  1  0  0  0  0
  8 31  1  0  0  0  0
  8 32  1  0  0  0  0
  9 33  1  0  0  0  0
  9 34  1  0  0  0  0
 10 35  1  0  0  0  0
 10 36  1  0  0  0  0
 11 37  1  0  0  0  0
 12 38  1  0  0  0  0
 12 39  1  0  0  0  0
 12 40  1  0  0  0  0
 13 41  1  0  0  0  0
 13 42  1  0  0  0  0
 13 43  1  0  0  0  0
 14 44  1  0  0  0  0
 14 45  1  0  0  0  0
 14 46  1  0  0  0  0
 19 47  1  0  0  0  0
M  END
> <id>
EN300-199871

> <smiles>
CC(C)(C)OC(=O)N1CCN2C(=NN=C2C1)C3CCNCC3

> <MDLNUMBER>
MFCD21605892

> <IUPAC Name>
tert-butyl 3-(piperidin-4-yl)-5H,6H,7H,8H-[1,2,4]triazolo[4,3-a]pyrazine-7-carboxylate

> <CAS>
1361112-46-0

> <Purity>
95

> <URL>
https://www.enaminestore.com/catalog/EN300-199871

> <ROCS_ShapeQuery>
_x0404_0B

> <ROCS_TanimotoCombo>
0.442 

> <ROCS_ShapeTanimoto>
0.354 

> <ROCS_ColorTanimoto>
0.088 

> <ROCS_RefTversky>
0.312 

> <ROCS_RefColorTversky>
0.095 

> <ROCS_RefTverskyCombo>
0.407 

> <ROCS_FitTversky>
1.614 

> <ROCS_FitColorTversky>
0.543 

> <ROCS_FitTverskyCombo>
2.157 

> <ROCS_ColorScore>
-6.854

> <ROCS_Overlap>
2083.379

> <ROCS_Rank>
185                 

$$$$
untitled-dbase-21252_0
  -OEChem-08222312023D

 32 35  0     0  0  0  0  0  0999 V2000
   -6.0327    6.9254  -18.0962 C   0  0  0  0  0  0  0  0  0  0  0  0
   -6.3302    5.9042  -18.9965 C   0  0  0  0  0  0  0  0  0  0  0  0
   -6.6106    6.9477  -16.8217 C   0  0  0  0  0  0  0  0  0  0  0  0
   -8.8721    5.7144   -9.2075 C   0  0  0  0  0  0  0  0  0  0  0  0
   -7.2120    4.8752  -18.6535 C   0  0  0  0  0  0  0  0  0  0  0  0
   -9.0752    4.5310   -8.4935 C   0  0  0  0  0  0  0  0  0  0  0  0
   -9.0093    3.2030  -10.5451 C   0  0  0  0  0  0  0  0  0  0  0  0
   -8.9591    4.4748  -15.5065 C   0  0  0  0  0  0  0  0  0  0  0  0
   -7.5026    5.9210  -16.4535 C   0  0  0  0  0  0  0  0  0  0  0  0
   -8.7431    5.6030  -10.5756 C   0  0  0  0  0  0  0  0  0  0  0  0
   -8.2521    5.6329  -15.2787 C   0  0  0  0  0  0  0  0  0  0  0  0
   -7.7822    4.9105  -17.3760 C   0  0  0  0  0  0  0  0  0  0  0  0
   -8.8092    4.3782  -11.2370 C   0  0  0  0  0  0  0  0  0  0  0  0
   -9.1430    3.2879   -9.1553 C   0  0  0  0  0  0  0  0  0  0  0  0
   -8.5253    6.6300  -11.5864 C   0  0  0  0  0  0  0  0  0  0  0  0
   -8.4803    5.8494  -12.8463 C   0  0  0  0  0  0  0  0  0  0  0  0
   -8.2968    6.3813  -14.0555 C   0  0  0  0  0  0  0  0  0  0  0  0
   -8.6690    4.0465  -16.7741 N   0  0  0  0  0  0  0  0  0  0  0  0
   -8.4112    7.8231  -11.4218 O   0  0  0  0  0  0  0  0  0  0  0  0
   -8.6554    4.4929  -12.5994 O   0  0  0  0  0  0  0  0  0  0  0  0
   -9.3417    2.1526   -8.4269 O   0  0  0  0  0  0  0  0  0  0  0  0
   -5.3424    7.7135  -18.3852 H   0  0  0  0  0  0  0  0  0  0  0  0
   -5.8695    5.9066  -19.9808 H   0  0  0  0  0  0  0  0  0  0  0  0
   -6.3669    7.7512  -16.1323 H   0  0  0  0  0  0  0  0  0  0  0  0
   -8.8195    6.6709   -8.7014 H   0  0  0  0  0  0  0  0  0  0  0  0
   -7.4422    4.0799  -19.3545 H   0  0  0  0  0  0  0  0  0  0  0  0
   -9.1806    4.5731   -7.4119 H   0  0  0  0  0  0  0  0  0  0  0  0
   -9.0615    2.2489  -11.0575 H   0  0  0  0  0  0  0  0  0  0  0  0
   -9.6437    3.9133  -14.8851 H   0  0  0  0  0  0  0  0  0  0  0  0
   -8.1433    7.4592  -14.1156 H   0  0  0  0  0  0  0  0  0  0  0  0
   -9.0507    3.2161  -17.2057 H   0  0  0  0  0  0  0  0  0  0  0  0
   -9.4149    2.3690   -7.4845 H   0  0  0  0  0  0  0  0  0  0  0  0
  1  2  2  0  0  0  0
  1  3  1  0  0  0  0
  2  5  1  0  0  0  0
  3  9  2  0  0  0  0
  4  6  1  0  0  0  0
  4 10  2  0  0  0  0
  5 12  2  0  0  0  0
  6 14  2  0  0  0  0
  7 13  2  0  0  0  0
  7 14  1  0  0  0  0
  8 11  2  0  0  0  0
  8 18  1  0  0  0  0
  9 11  1  0  0  0  0
  9 12  1  0  0  0  0
 10 13  1  0  0  0  0
 10 15  1  0  0  0  0
 11 17  1  0  0  0  0
 12 18  1  0  0  0  0
 13 20  1  0  0  0  0
 14 21  1  0  0  0  0
 15 16  1  0  0  0  0
 15 19  2  0  0  0  0
 16 17  2  3  0  0  0
 16 20  1  0  0  0  0
  1 22  1  0  0  0  0
  2 23  1  0  0  0  0
  3 24  1  0  0  0  0
  4 25  1  0  0  0  0
  5 26  1  0  0  0  0
  6 27  1  0  0  0  0
  7 28  1  0  0  0  0
  8 29  1  0  0  0  0
 17 30  1  0  0  0  0
 18 31  1  0  0  0  0
 21 32  1  0  0  0  0
M  END
> <id>
EN300-303154

> <smiles>
OC=1C=CC=2C(=O)C(=CC3=CNC=4C=CC=CC34)OC2C1

> <IUPAC Name>
6-hydroxy-2-[(1H-indol-3-yl)methylidene]-2,3-dihydro-1-benzofuran-3-one

> <CAS>
210360-85-3

> <Purity>
95

> <URL>
https://www.enaminestore.com/catalog/EN300-303154

> <ROCS_ShapeQuery>
_x0404_0B

> <ROCS_TanimotoCombo>
0.442 

> <ROCS_ShapeTanimoto>
0.364 

> <ROCS_ColorTanimoto>
0.078 

> <ROCS_RefTversky>
0.319 

> <ROCS_RefColorTversky>
0.085 

> <ROCS_RefTverskyCombo>
0.404 

> <ROCS_FitTversky>
1.638 

> <ROCS_FitColorTversky>
0.496 

> <ROCS_FitTverskyCombo>
2.134 

> <ROCS_ColorScore>
-6.139

> <ROCS_Overlap>
2126.433

> <ROCS_Rank>
186                 

$$$$
untitled-dbase-168301_4805
  -OEChem-08222312023D

 55 57  0     0  0  0  0  0  0999 V2000
   -9.0940    2.0703   -8.3259 C   0  0  0  0  0  0  0  0  0  0  0  0
   -8.9796    2.9032   -9.4334 C   0  0  0  0  0  0  0  0  0  0  0  0
   -9.1279    4.0033   -6.9407 C   0  0  0  0  0  0  0  0  0  0  0  0
   -9.1702    2.6229   -7.0523 C   0  0  0  0  0  0  0  0  0  0  0  0
   -8.9460    4.2711   -9.2152 C   0  0  0  0  0  0  0  0  0  0  0  0
   -8.3890    5.3673  -17.7596 C   0  0  0  0  0  0  0  0  0  0  0  0
  -10.0150    5.0244  -11.3673 C   0  0  0  0  0  0  0  0  0  0  0  0
   -7.5009    5.1007  -11.2021 C   0  0  0  0  0  0  0  0  0  0  0  0
   -9.9500    5.9292  -12.6051 C   0  0  0  0  0  0  0  0  0  0  0  0
   -7.4480    6.0610  -12.3956 C   0  0  0  0  0  0  0  0  0  0  0  0
   -8.6074    6.9959  -14.4444 C   0  0  0  0  0  0  0  0  0  0  0  0
   -8.4597    4.4721  -14.0953 C   0  0  0  0  0  0  0  0  0  0  0  0
   -7.8305    6.6341  -15.7046 C   0  0  0  0  0  0  0  0  0  0  0  0
   -9.0350    4.4525  -15.5084 C   0  0  0  0  0  0  0  0  0  0  0  0
   -8.8211    5.2187  -10.4099 C   0  0  0  0  0  0  0  0  0  0  0  0
   -8.6167    5.8509  -13.3910 C   0  0  0  0  0  0  0  0  0  0  0  0
   -7.1912    4.5414  -20.2228 C   0  0  0  0  0  0  0  0  0  0  0  0
   -5.2827    6.0449  -19.5857 C   0  0  0  0  0  0  0  0  0  0  0  0
   -5.8587    4.0739  -18.1395 C   0  0  0  0  0  0  0  0  0  0  0  0
   -6.4112    5.1587  -19.0630 C   0  0  0  0  0  0  0  0  0  0  0  0
   -9.0174    4.8447   -7.9931 N   0  0  0  0  0  0  0  0  0  0  0  0
   -8.4148    5.4675  -16.3653 N   0  0  0  0  0  0  0  0  0  0  0  0
   -9.2390    4.7823  -18.4282 O   0  0  0  0  0  0  0  0  0  0  0  0
   -8.8840    6.5645   -9.9073 O   0  0  0  0  0  0  0  0  0  0  0  0
   -7.2993    5.9911  -18.3083 O   0  0  0  0  0  0  0  0  0  0  0  0
   -9.3260    1.5295   -5.5268 Br  0  0  0  0  0  0  0  0  0  0  0  0
   -9.1223    0.9936   -8.4708 H   0  0  0  0  0  0  0  0  0  0  0  0
   -8.9198    2.4842  -10.4323 H   0  0  0  0  0  0  0  0  0  0  0  0
   -9.1826    4.4970   -5.9750 H   0  0  0  0  0  0  0  0  0  0  0  0
  -10.9525    5.2386  -10.8389 H   0  0  0  0  0  0  0  0  0  0  0  0
  -10.0735    3.9790  -11.6919 H   0  0  0  0  0  0  0  0  0  0  0  0
   -7.3659    4.0761  -11.5602 H   0  0  0  0  0  0  0  0  0  0  0  0
   -6.6533    5.3237  -10.5465 H   0  0  0  0  0  0  0  0  0  0  0  0
  -10.8071    5.6888  -13.2497 H   0  0  0  0  0  0  0  0  0  0  0  0
  -10.1175    6.9691  -12.2815 H   0  0  0  0  0  0  0  0  0  0  0  0
   -7.4660    7.0901  -12.0218 H   0  0  0  0  0  0  0  0  0  0  0  0
   -6.4882    5.9361  -12.9063 H   0  0  0  0  0  0  0  0  0  0  0  0
   -8.1553    7.8916  -14.0030 H   0  0  0  0  0  0  0  0  0  0  0  0
   -9.6326    7.2660  -14.7169 H   0  0  0  0  0  0  0  0  0  0  0  0
   -8.9273    3.6737  -13.5137 H   0  0  0  0  0  0  0  0  0  0  0  0
   -7.3937    4.2210  -14.1567 H   0  0  0  0  0  0  0  0  0  0  0  0
   -7.8404    7.4566  -16.4260 H   0  0  0  0  0  0  0  0  0  0  0  0
   -6.7846    6.4442  -15.4487 H   0  0  0  0  0  0  0  0  0  0  0  0
   -8.9093    3.4497  -15.9322 H   0  0  0  0  0  0  0  0  0  0  0  0
  -10.1138    4.6536  -15.4983 H   0  0  0  0  0  0  0  0  0  0  0  0
   -8.0022    3.9045  -19.8518 H   0  0  0  0  0  0  0  0  0  0  0  0
   -7.6222    5.3095  -20.8732 H   0  0  0  0  0  0  0  0  0  0  0  0
   -6.5450    3.8968  -20.8296 H   0  0  0  0  0  0  0  0  0  0  0  0
   -4.7203    6.4899  -18.7569 H   0  0  0  0  0  0  0  0  0  0  0  0
   -5.6822    6.8807  -20.1715 H   0  0  0  0  0  0  0  0  0  0  0  0
   -4.5856    5.4823  -20.2151 H   0  0  0  0  0  0  0  0  0  0  0  0
   -5.2991    4.5165  -17.3074 H   0  0  0  0  0  0  0  0  0  0  0  0
   -6.6582    3.4509  -17.7256 H   0  0  0  0  0  0  0  0  0  0  0  0
   -5.1552    3.4268  -18.6757 H   0  0  0  0  0  0  0  0  0  0  0  0
   -9.7426    6.6538   -9.4660 H   0  0  0  0  0  0  0  0  0  0  0  0
  1  2  1  0  0  0  0
  1  4  2  0  0  0  0
  2  5  2  0  0  0  0
  3  4  1  0  0  0  0
  3 21  2  0  0  0  0
  4 26  1  0  0  0  0
  5 15  1  0  0  0  0
  5 21  1  0  0  0  0
  6 22  1  0  0  0  0
  6 23  2  0  0  0  0
  6 25  1  0  0  0  0
  7  9  1  0  0  0  0
  7 15  1  0  0  0  0
  8 10  1  0  0  0  0
  8 15  1  0  0  0  0
  9 16  1  0  0  0  0
 10 16  1  0  0  0  0
 11 13  1  0  0  0  0
 11 16  1  0  0  0  0
 12 14  1  0  0  0  0
 12 16  1  0  0  0  0
 13 22  1  0  0  0  0
 14 22  1  0  0  0  0
 15 24  1  0  0  0  0
 17 20  1  0  0  0  0
 18 20  1  0  0  0  0
 19 20  1  0  0  0  0
 20 25  1  0  0  0  0
  1 27  1  0  0  0  0
  2 28  1  0  0  0  0
  3 29  1  0  0  0  0
  7 30  1  0  0  0  0
  7 31  1  0  0  0  0
  8 32  1  0  0  0  0
  8 33  1  0  0  0  0
  9 34  1  0  0  0  0
  9 35  1  0  0  0  0
 10 36  1  0  0  0  0
 10 37  1  0  0  0  0
 11 38  1  0  0  0  0
 11 39  1  0  0  0  0
 12 40  1  0  0  0  0
 12 41  1  0  0  0  0
 13 42  1  0  0  0  0
 13 43  1  0  0  0  0
 14 44  1  0  0  0  0
 14 45  1  0  0  0  0
 17 46  1  0  0  0  0
 17 47  1  0  0  0  0
 17 48  1  0  0  0  0
 18 49  1  0  0  0  0
 18 50  1  0  0  0  0
 18 51  1  0  0  0  0
 19 52  1  0  0  0  0
 19 53  1  0  0  0  0
 19 54  1  0  0  0  0
 24 55  1  0  0  0  0
M  END
> <id>
EN300-7428347

> <smiles>
CC(C)(C)OC(=O)N1CCC2(CC1)CCC(O)(CC2)C=3C=CC(Br)=CN3

> <IUPAC Name>
tert-butyl 9-(5-bromopyridin-2-yl)-9-hydroxy-3-azaspiro[5.5]undecane-3-carboxylate

> <CAS>
2309460-33-9

> <URL>
https://www.enaminestore.com/catalog/EN300-7428347

> <ROCS_ShapeQuery>
_x0404_0B

> <ROCS_TanimotoCombo>
0.442 

> <ROCS_ShapeTanimoto>
0.394 

> <ROCS_ColorTanimoto>
0.048 

> <ROCS_RefTversky>
0.343 

> <ROCS_RefColorTversky>
0.054 

> <ROCS_RefTverskyCombo>
0.397 

> <ROCS_FitTversky>
1.599 

> <ROCS_FitColorTversky>
0.316 

> <ROCS_FitTverskyCombo>
1.915 

> <ROCS_ColorScore>
-3.895

> <ROCS_Overlap>
2292.222

> <ROCS_Rank>
187                 

$$$$
untitled-dbase-91580_814
  -OEChem-08222312023D

 49 51  0     0  0  0  0  0  0999 V2000
  -10.0687    4.7376  -16.8019 C   0  0  0  0  0  0  0  0  0  0  0  0
  -10.2681    4.1348  -18.0334 C   0  0  0  0  0  0  0  0  0  0  0  0
   -8.0401    4.2924  -18.5716 C   0  0  0  0  0  0  0  0  0  0  0  0
   -8.7757    5.1259  -16.4691 C   0  0  0  0  0  0  0  0  0  0  0  0
   -7.7364    4.9028  -17.3653 C   0  0  0  0  0  0  0  0  0  0  0  0
   -8.8598    5.2542   -8.7424 C   0  0  0  0  0  0  0  0  0  0  0  0
   -8.0184    6.5434  -12.0472 C   0  0  0  0  0  0  0  0  0  0  0  0
   -8.2287    4.0261  -12.0714 C   0  0  0  0  0  0  0  0  0  0  0  0
   -9.4913    5.4002  -13.8840 C   0  0  0  0  0  0  0  0  0  0  0  0
   -7.3690    5.2252  -14.1766 C   0  0  0  0  0  0  0  0  0  0  0  0
   -9.0072    6.5925  -10.8833 C   0  0  0  0  0  0  0  0  0  0  0  0
   -9.2256    4.1213  -10.9201 C   0  0  0  0  0  0  0  0  0  0  0  0
   -8.5278    5.8254  -15.0455 C   0  0  0  0  0  0  0  0  0  0  0  0
   -8.2755    5.3045  -12.9189 C   0  0  0  0  0  0  0  0  0  0  0  0
  -10.4911    3.4374   -7.7806 C   0  0  0  0  0  0  0  0  0  0  0  0
   -8.5769    1.8118   -7.7300 C   0  0  0  0  0  0  0  0  0  0  0  0
   -8.7041    3.6477   -6.0207 C   0  0  0  0  0  0  0  0  0  0  0  0
   -9.0074    3.2529   -7.4654 C   0  0  0  0  0  0  0  0  0  0  0  0
   -9.2836    3.9014  -18.9300 N   0  0  0  0  0  0  0  0  0  0  0  0
   -9.0015    5.3329  -10.1312 N   0  0  0  0  0  0  0  0  0  0  0  0
   -9.2382    6.1217   -7.9571 O   0  0  0  0  0  0  0  0  0  0  0  0
   -8.4237    7.2650  -15.2086 O   0  0  0  0  0  0  0  0  0  0  0  0
   -8.2478    4.0974   -8.3379 O   0  0  0  0  0  0  0  0  0  0  0  0
   -5.9534    5.3990  -16.9905 Br  0  0  0  0  0  0  0  0  0  0  0  0
  -10.9008    4.8991  -16.1254 H   0  0  0  0  0  0  0  0  0  0  0  0
  -11.2578    3.8134  -18.3407 H   0  0  0  0  0  0  0  0  0  0  0  0
   -7.2758    4.0895  -19.3159 H   0  0  0  0  0  0  0  0  0  0  0  0
   -8.1035    7.4675  -12.6290 H   0  0  0  0  0  0  0  0  0  0  0  0
   -6.9949    6.5129  -11.6515 H   0  0  0  0  0  0  0  0  0  0  0  0
   -7.2180    3.8787  -11.6700 H   0  0  0  0  0  0  0  0  0  0  0  0
   -8.4590    3.1430  -12.6794 H   0  0  0  0  0  0  0  0  0  0  0  0
  -10.2493    6.1447  -13.6193 H   0  0  0  0  0  0  0  0  0  0  0  0
  -10.0082    4.4486  -14.0617 H   0  0  0  0  0  0  0  0  0  0  0  0
   -7.0778    4.2080  -14.4681 H   0  0  0  0  0  0  0  0  0  0  0  0
   -6.4572    5.8311  -14.1361 H   0  0  0  0  0  0  0  0  0  0  0  0
   -8.7702    7.4437  -10.2397 H   0  0  0  0  0  0  0  0  0  0  0  0
  -10.0300    6.7370  -11.2498 H   0  0  0  0  0  0  0  0  0  0  0  0
  -10.2527    4.1714  -11.3004 H   0  0  0  0  0  0  0  0  0  0  0  0
   -9.1513    3.2294  -10.2900 H   0  0  0  0  0  0  0  0  0  0  0  0
  -10.8041    4.4705   -7.5919 H   0  0  0  0  0  0  0  0  0  0  0  0
  -10.7156    3.1910   -8.8235 H   0  0  0  0  0  0  0  0  0  0  0  0
  -11.1098    2.8041   -7.1344 H   0  0  0  0  0  0  0  0  0  0  0  0
   -7.5130    1.6750   -7.5052 H   0  0  0  0  0  0  0  0  0  0  0  0
   -8.7045    1.5543   -8.7877 H   0  0  0  0  0  0  0  0  0  0  0  0
   -9.1526    1.1012   -7.1283 H   0  0  0  0  0  0  0  0  0  0  0  0
   -7.6399    3.5155   -5.7944 H   0  0  0  0  0  0  0  0  0  0  0  0
   -8.9726    4.6904   -5.8227 H   0  0  0  0  0  0  0  0  0  0  0  0
   -9.2513    3.0079   -5.3189 H   0  0  0  0  0  0  0  0  0  0  0  0
   -7.6747    7.3978  -15.7992 H   0  0  0  0  0  0  0  0  0  0  0  0
  1  2  1  0  0  0  0
  1  4  2  0  0  0  0
  2 19  2  0  0  0  0
  3  5  2  0  0  0  0
  3 19  1  0  0  0  0
  4  5  1  0  0  0  0
  4 13  1  0  0  0  0
  5 24  1  0  0  0  0
  6 20  1  0  0  0  0
  6 21  2  0  0  0  0
  6 23  1  0  0  0  0
  7 11  1  0  0  0  0
  7 14  1  0  0  0  0
  8 12  1  0  0  0  0
  8 14  1  0  0  0  0
  9 13  1  0  0  0  0
  9 14  1  0  0  0  0
 10 13  1  0  0  0  0
 10 14  1  0  0  0  0
 11 20  1  0  0  0  0
 12 20  1  0  0  0  0
 13 22  1  0  0  0  0
 15 18  1  0  0  0  0
 16 18  1  0  0  0  0
 17 18  1  0  0  0  0
 18 23  1  0  0  0  0
  1 25  1  0  0  0  0
  2 26  1  0  0  0  0
  3 27  1  0  0  0  0
  7 28  1  0  0  0  0
  7 29  1  0  0  0  0
  8 30  1  0  0  0  0
  8 31  1  0  0  0  0
  9 32  1  0  0  0  0
  9 33  1  0  0  0  0
 10 34  1  0  0  0  0
 10 35  1  0  0  0  0
 11 36  1  0  0  0  0
 11 37  1  0  0  0  0
 12 38  1  0  0  0  0
 12 39  1  0  0  0  0
 15 40  1  0  0  0  0
 15 41  1  0  0  0  0
 15 42  1  0  0  0  0
 16 43  1  0  0  0  0
 16 44  1  0  0  0  0
 16 45  1  0  0  0  0
 17 46  1  0  0  0  0
 17 47  1  0  0  0  0
 17 48  1  0  0  0  0
 22 49  1  0  0  0  0
M  END
> <id>
EN300-7428198

> <smiles>
CC(C)(C)OC(=O)N1CCC2(CC(O)(C2)C=3C=CN=CC3Br)CC1

> <IUPAC Name>
tert-butyl 2-(3-bromopyridin-4-yl)-2-hydroxy-7-azaspiro[3.5]nonane-7-carboxylate

> <CAS>
2309449-16-7

> <URL>
https://www.enaminestore.com/catalog/EN300-7428198

> <ROCS_ShapeQuery>
_x0404_0B

> <ROCS_TanimotoCombo>
0.442 

> <ROCS_ShapeTanimoto>
0.380 

> <ROCS_ColorTanimoto>
0.061 

> <ROCS_RefTversky>
0.331 

> <ROCS_RefColorTversky>
0.068 

> <ROCS_RefTverskyCombo>
0.399 

> <ROCS_FitTversky>
1.639 

> <ROCS_FitColorTversky>
0.397 

> <ROCS_FitTverskyCombo>
2.036 

> <ROCS_ColorScore>
-4.898

> <ROCS_Overlap>
2212.202

> <ROCS_Rank>
188                 

$$$$
untitled-dbase-105521_4
  -OEChem-08222312023D

 35 38  0     0  0  0  0  0  0999 V2000
   -9.3629    8.6289  -10.5837 C   0  0  0  0  0  0  0  0  0  0  0  0
   -9.0183    2.2670   -7.7234 C   0  0  0  0  0  0  0  0  0  0  0  0
   -9.3156    3.3872   -6.9531 C   0  0  0  0  0  0  0  0  0  0  0  0
   -8.7825    2.4044   -9.0913 C   0  0  0  0  0  0  0  0  0  0  0  0
   -9.3770    4.6451   -7.5519 C   0  0  0  0  0  0  0  0  0  0  0  0
   -8.1225    4.3558  -14.0670 C   0  0  0  0  0  0  0  0  0  0  0  0
   -8.8441    3.6697   -9.6933 C   0  0  0  0  0  0  0  0  0  0  0  0
   -9.1416    4.7932   -8.9254 C   0  0  0  0  0  0  0  0  0  0  0  0
   -8.4328    5.3329  -13.1301 C   0  0  0  0  0  0  0  0  0  0  0  0
   -8.5056    6.6008  -13.6804 C   0  0  0  0  0  0  0  0  0  0  0  0
   -8.0128    5.8649  -15.7716 C   0  0  0  0  0  0  0  0  0  0  0  0
   -9.0547    7.4940  -11.3972 C   0  0  0  0  0  0  0  0  0  0  0  0
   -8.5932    3.8226  -11.1533 C   0  0  0  0  0  0  0  0  0  0  0  0
   -8.8222    7.7511  -12.8383 C   0  0  0  0  0  0  0  0  0  0  0  0
   -8.9770    6.2400  -10.8835 C   0  0  0  0  0  0  0  0  0  0  0  0
   -8.9843    5.2522  -18.3083 C   0  0  0  0  0  0  0  0  0  0  0  0
   -9.6128    9.5497   -9.9239 N   0  0  0  0  0  0  0  0  0  0  0  0
   -7.9078    4.5859  -15.3866 N   0  0  0  0  0  0  0  0  0  0  0  0
   -8.3046    6.9073  -14.9834 N   0  0  0  0  0  0  0  0  0  0  0  0
   -9.2021    6.0444   -9.5281 N   0  0  0  0  0  0  0  0  0  0  0  0
   -8.6681    5.1309  -11.7196 N   0  0  0  0  0  0  0  0  0  0  0  0
   -8.3376    2.7799  -11.7524 O   0  0  0  0  0  0  0  0  0  0  0  0
   -8.8877    8.8744  -13.3239 O   0  0  0  0  0  0  0  0  0  0  0  0
   -8.0293    7.6141  -17.6885 O   0  0  0  0  0  0  0  0  0  0  0  0
   -6.4501    5.6584  -17.8533 O   0  0  0  0  0  0  0  0  0  0  0  0
   -7.7461    6.2003  -17.4415 S   0  0  0  0  0  0  0  0  0  0  0  0
   -8.9688    1.2860   -7.2600 H   0  0  0  0  0  0  0  0  0  0  0  0
   -9.4989    3.2829   -5.8879 H   0  0  0  0  0  0  0  0  0  0  0  0
   -8.5518    1.5127   -9.6680 H   0  0  0  0  0  0  0  0  0  0  0  0
   -9.6094    5.5124   -6.9384 H   0  0  0  0  0  0  0  0  0  0  0  0
   -8.0195    3.3057  -13.8345 H   0  0  0  0  0  0  0  0  0  0  0  0
   -8.8640    5.4258  -19.3788 H   0  0  0  0  0  0  0  0  0  0  0  0
   -8.8371    4.1970  -18.0731 H   0  0  0  0  0  0  0  0  0  0  0  0
   -9.9684    5.5848  -17.9750 H   0  0  0  0  0  0  0  0  0  0  0  0
   -9.4210    6.8416   -8.9447 H   0  0  0  0  0  0  0  0  0  0  0  0
  1 12  1  0  0  0  0
  1 17  3  0  0  0  0
  2  3  2  0  0  0  0
  2  4  1  0  0  0  0
  3  5  1  0  0  0  0
  4  7  2  0  0  0  0
  5  8  2  0  0  0  0
  6  9  2  0  0  0  0
  6 18  1  0  0  0  0
  7  8  1  0  0  0  0
  7 13  1  0  0  0  0
  8 20  1  0  0  0  0
  9 10  1  0  0  0  0
  9 21  1  0  0  0  0
 10 14  1  0  0  0  0
 10 19  2  0  0  0  0
 11 18  2  0  0  0  0
 11 19  1  0  0  0  0
 11 26  1  0  0  0  0
 12 14  1  0  0  0  0
 12 15  2  0  0  0  0
 13 21  1  0  0  0  0
 13 22  2  0  0  0  0
 14 23  2  0  0  0  0
 15 20  1  0  0  0  0
 15 21  1  0  0  0  0
 16 26  1  0  0  0  0
 24 26  2  0  0  0  0
 25 26  2  0  0  0  0
  2 27  1  0  0  0  0
  3 28  1  0  0  0  0
  4 29  1  0  0  0  0
  5 30  1  0  0  0  0
  6 31  1  0  0  0  0
 16 32  1  0  0  0  0
 16 33  1  0  0  0  0
 16 34  1  0  0  0  0
 20 35  1  0  0  0  0
M  END
> <id>
EN300-26611851

> <smiles>
CS(=O)(=O)C=1N=CC2=C(N1)C(=O)C(C#N)=C3NC=4C=CC=CC4C(=O)N23

> <IUPAC Name>
2-methanesulfonyl-6,13-dioxo-11,13-dihydro-6H-1,3,5a,11-tetraazatetraphene-12-carbonitrile

> <CAS>
301325-40-6

> <URL>
https://www.enaminestore.com/catalog/EN300-26611851

> <ROCS_ShapeQuery>
_x0404_0B

> <ROCS_TanimotoCombo>
0.442 

> <ROCS_ShapeTanimoto>
0.366 

> <ROCS_ColorTanimoto>
0.076 

> <ROCS_RefTversky>
0.328 

> <ROCS_RefColorTversky>
0.085 

> <ROCS_RefTverskyCombo>
0.413 

> <ROCS_FitTversky>
1.460 

> <ROCS_FitColorTversky>
0.405 

> <ROCS_FitTverskyCombo>
1.864 

> <ROCS_ColorScore>
-6.151

> <ROCS_Overlap>
2195.135

> <ROCS_Rank>
189                 

$$$$
untitled-dbase-174292_50
  -OEChem-08222312023D

 47 50  0     1  0  0  0  0  0999 V2000
   -9.1991    3.9832   -9.1764 C   0  0  0  0  0  0  0  0  0  0  0  0
   -9.3330    3.3357   -8.1737 C   0  0  0  0  0  0  0  0  0  0  0  0
   -8.8171    6.1419  -10.2722 C   0  0  0  0  0  0  0  0  0  0  0  0
   -8.6583    6.9211  -11.4191 C   0  0  0  0  0  0  0  0  0  0  0  0
   -9.1053    4.1236  -11.6150 C   0  0  0  0  0  0  0  0  0  0  0  0
   -9.0386    4.7556  -10.3689 C   0  0  0  0  0  0  0  0  0  0  0  0
   -8.7287    6.2728  -12.6367 C   0  0  0  0  0  0  0  0  0  0  0  0
   -8.9478    4.8990  -12.7481 C   0  0  0  0  0  0  0  0  0  0  0  0
   -8.6011    6.8311  -13.9876 C   0  0  0  0  0  0  0  0  0  0  0  0
   -8.2385    4.6713  -18.9230 C   0  0  0  0  0  0  0  0  0  0  0  0
   -9.6594    4.8116  -16.8598 C   0  0  0  0  0  0  0  0  0  0  0  0
   -8.9743    4.4903  -14.1813 C   0  0  0  0  0  0  0  0  0  0  0  0
   -7.2829    5.6775  -18.3273 C   0  0  0  0  0  0  0  0  0  0  0  0
   -7.2841    5.6146  -16.8108 C   0  0  0  0  0  0  0  0  0  0  0  0
  -10.5325    1.4238   -7.1420 C   0  0  0  0  0  0  0  0  0  0  0  0
   -9.8711    3.4598   -5.7681 C   0  0  0  0  0  0  0  0  0  0  0  0
  -11.9242    1.8537   -6.6808 C   0  0  0  0  0  0  0  0  0  0  0  0
  -10.7068    2.7186   -4.7285 C   0  0  0  0  0  0  0  0  0  0  0  0
   -9.4965    2.5416   -6.9424 C   0  0  0  0  0  0  0  0  0  0  0  0
   -8.6968    5.8422  -16.2973 C   0  0  2  0  0  0  0  0  0  0  0  0
   -9.3375    4.3457  -18.1341 N   0  0  0  0  0  0  0  0  0  0  0  0
  -11.9792    2.2378   -5.2697 N   0  0  0  0  0  0  0  0  0  0  0  0
   -8.7496    5.7600  -14.8619 N   0  0  0  0  0  0  0  0  0  0  0  0
   -8.4044    8.0090  -14.2228 O   0  0  0  0  0  0  0  0  0  0  0  0
   -8.0699    4.2181  -20.0549 O   0  0  0  0  0  0  0  0  0  0  0  0
  -10.6862    4.4683  -16.2740 O   0  0  0  0  0  0  0  0  0  0  0  0
   -8.7675    6.6242   -9.2979 H   0  0  0  0  0  0  0  0  0  0  0  0
   -8.4881    7.9890  -11.3472 H   0  0  0  0  0  0  0  0  0  0  0  0
   -9.2766    3.0547  -11.6997 H   0  0  0  0  0  0  0  0  0  0  0  0
   -8.1624    3.8002  -14.4277 H   0  0  0  0  0  0  0  0  0  0  0  0
   -9.9486    4.0914  -14.4763 H   0  0  0  0  0  0  0  0  0  0  0  0
   -6.2761    5.4657  -18.7033 H   0  0  0  0  0  0  0  0  0  0  0  0
   -7.5760    6.6736  -18.6774 H   0  0  0  0  0  0  0  0  0  0  0  0
   -6.9127    4.6332  -16.4872 H   0  0  0  0  0  0  0  0  0  0  0  0
   -6.6034    6.3750  -16.4109 H   0  0  0  0  0  0  0  0  0  0  0  0
  -10.2272    0.5426   -6.5666 H   0  0  0  0  0  0  0  0  0  0  0  0
  -10.5721    1.1217   -8.1931 H   0  0  0  0  0  0  0  0  0  0  0  0
  -10.4204    4.3343   -6.1260 H   0  0  0  0  0  0  0  0  0  0  0  0
   -8.9567    3.8256   -5.2912 H   0  0  0  0  0  0  0  0  0  0  0  0
  -12.3014    2.6819   -7.3100 H   0  0  0  0  0  0  0  0  0  0  0  0
  -12.6267    1.0172   -6.8424 H   0  0  0  0  0  0  0  0  0  0  0  0
  -10.1346    1.8533   -4.3613 H   0  0  0  0  0  0  0  0  0  0  0  0
  -10.8903    3.3583   -3.8506 H   0  0  0  0  0  0  0  0  0  0  0  0
   -8.5225    2.0787   -6.7205 H   0  0  0  0  0  0  0  0  0  0  0  0
   -9.0583    6.8366  -16.5851 H   0  0  0  0  0  0  0  0  0  0  0  0
   -9.9912    3.6814  -18.5398 H   0  0  0  0  0  0  0  0  0  0  0  0
  -12.6924    2.9724   -5.1496 H   0  0  0  0  0  0  0  0  0  0  0  0
  1  2  3  0  0  0  0
  1  6  1  0  0  0  0
  2 19  1  0  0  0  0
  3  4  1  0  0  0  0
  3  6  2  0  0  0  0
  4  7  2  0  0  0  0
  5  6  1  0  0  0  0
  5  8  2  0  0  0  0
  7  8  1  0  0  0  0
  7  9  1  0  0  0  0
  8 12  1  0  0  0  0
  9 23  1  0  0  0  0
  9 24  2  0  0  0  0
 10 13  1  0  0  0  0
 10 21  1  0  0  0  0
 10 25  2  0  0  0  0
 11 20  1  0  0  0  0
 11 21  1  0  0  0  0
 11 26  2  0  0  0  0
 12 23  1  0  0  0  0
 13 14  1  0  0  0  0
 14 20  1  0  0  0  0
 15 17  1  0  0  0  0
 15 19  1  0  0  0  0
 16 18  1  0  0  0  0
 16 19  1  0  0  0  0
 17 22  1  0  0  0  0
 18 22  1  0  0  0  0
 20 23  1  0  0  0  0
  3 27  1  0  0  0  0
  4 28  1  0  0  0  0
  5 29  1  0  0  0  0
 12 30  1  0  0  0  0
 12 31  1  0  0  0  0
 13 32  1  0  0  0  0
 13 33  1  0  0  0  0
 14 34  1  0  0  0  0
 14 35  1  0  0  0  0
 15 36  1  0  0  0  0
 15 37  1  0  0  0  0
 16 38  1  0  0  0  0
 16 39  1  0  0  0  0
 17 40  1  0  0  0  0
 17 41  1  0  0  0  0
 18 42  1  0  0  0  0
 18 43  1  0  0  0  0
 19 44  1  0  0  0  0
 20 45  1  0  0  0  0
 21 46  1  0  0  0  0
 22 47  1  0  0  0  0
M  END
> <id>
EN300-43354267

> <smiles>
O=C1N(CC=2C=C(C#CC3CCNCC3)C=CC12)C4CCC(=O)NC4=O

> <IUPAC Name>
3-{1-oxo-5-[2-(piperidin-4-yl)ethynyl]-2,3-dihydro-1H-isoindol-2-yl}piperidine-2,6-dione

> <URL>
https://www.enaminestore.com/catalog/EN300-43354267

> <ROCS_ShapeQuery>
_x0404_0B

> <ROCS_TanimotoCombo>
0.442 

> <ROCS_ShapeTanimoto>
0.389 

> <ROCS_ColorTanimoto>
0.052 

> <ROCS_RefTversky>
0.342 

> <ROCS_RefColorTversky>
0.059 

> <ROCS_RefTverskyCombo>
0.401 

> <ROCS_FitTversky>
1.552 

> <ROCS_FitColorTversky>
0.320 

> <ROCS_FitTverskyCombo>
1.873 

> <ROCS_ColorScore>
-4.260

> <ROCS_Overlap>
2285.558

> <ROCS_Rank>
190                 

$$$$
untitled-dbase-102880_362
  -OEChem-08222312023D

 41 43  0     0  0  0  0  0  0999 V2000
   -9.7674    4.0866  -16.9977 C   0  0  0  0  0  0  0  0  0  0  0  0
   -8.5570    3.9641  -17.6709 C   0  0  0  0  0  0  0  0  0  0  0  0
   -9.8753    4.9678  -15.9276 C   0  0  0  0  0  0  0  0  0  0  0  0
   -8.7523    5.6979  -15.5729 C   0  0  0  0  0  0  0  0  0  0  0  0
   -7.4931    4.7392  -17.2383 C   0  0  0  0  0  0  0  0  0  0  0  0
   -8.7687    6.6464  -14.4646 C   0  0  0  0  0  0  0  0  0  0  0  0
   -8.8789    5.3609   -9.0413 C   0  0  0  0  0  0  0  0  0  0  0  0
   -9.0038    2.2936   -7.0685 C   0  0  0  0  0  0  0  0  0  0  0  0
   -9.2451    1.6963   -8.4458 C   0  0  0  0  0  0  0  0  0  0  0  0
   -8.2928    3.5996   -7.3871 C   0  0  0  0  0  0  0  0  0  0  0  0
   -9.5846    2.9161   -9.2910 C   0  0  0  0  0  0  0  0  0  0  0  0
   -8.7874    4.7789  -12.7110 C   0  0  0  0  0  0  0  0  0  0  0  0
   -9.7767    6.9993  -12.2199 C   0  0  0  0  0  0  0  0  0  0  0  0
   -8.0806    4.8232  -11.3610 C   0  0  0  0  0  0  0  0  0  0  0  0
   -9.0696    7.0128  -10.8682 C   0  0  0  0  0  0  0  0  0  0  0  0
   -7.5598    5.6059  -16.2029 N   0  0  0  0  0  0  0  0  0  0  0  0
   -9.0764    6.1445  -13.1861 N   0  0  0  0  0  0  0  0  0  0  0  0
   -8.8308    4.0138   -8.6793 N   0  0  0  0  0  0  0  0  0  0  0  0
   -8.8291    5.6467  -10.4087 N   0  0  0  0  0  0  0  0  0  0  0  0
   -8.5175    7.8362  -14.6648 O   0  0  0  0  0  0  0  0  0  0  0  0
   -9.0077    6.2578   -8.1992 O   0  0  0  0  0  0  0  0  0  0  0  0
  -11.3756    5.1154  -15.0977 Cl  0  0  0  0  0  0  0  0  0  0  0  0
   -5.9623    4.6529  -18.0077 Cl  0  0  0  0  0  0  0  0  0  0  0  0
  -10.6166    3.4888  -17.3184 H   0  0  0  0  0  0  0  0  0  0  0  0
   -8.4636    3.2789  -18.5068 H   0  0  0  0  0  0  0  0  0  0  0  0
   -9.9590    2.4921   -6.5653 H   0  0  0  0  0  0  0  0  0  0  0  0
   -8.4058    1.6369   -6.4281 H   0  0  0  0  0  0  0  0  0  0  0  0
   -8.3306    1.2168   -8.8186 H   0  0  0  0  0  0  0  0  0  0  0  0
  -10.0480    0.9519   -8.4421 H   0  0  0  0  0  0  0  0  0  0  0  0
   -8.4635    4.3760   -6.6363 H   0  0  0  0  0  0  0  0  0  0  0  0
   -7.2137    3.4482   -7.4998 H   0  0  0  0  0  0  0  0  0  0  0  0
   -9.3070    2.7836  -10.3399 H   0  0  0  0  0  0  0  0  0  0  0  0
  -10.6523    3.1395   -9.2062 H   0  0  0  0  0  0  0  0  0  0  0  0
   -8.1754    4.2592  -13.4449 H   0  0  0  0  0  0  0  0  0  0  0  0
   -9.7412    4.2580  -12.6333 H   0  0  0  0  0  0  0  0  0  0  0  0
  -10.8042    6.6465  -12.0931 H   0  0  0  0  0  0  0  0  0  0  0  0
   -9.8199    8.0085  -12.6439 H   0  0  0  0  0  0  0  0  0  0  0  0
   -7.9961    3.8101  -10.9734 H   0  0  0  0  0  0  0  0  0  0  0  0
   -7.0896    5.2591  -11.4814 H   0  0  0  0  0  0  0  0  0  0  0  0
   -8.1205    7.5406  -10.9485 H   0  0  0  0  0  0  0  0  0  0  0  0
   -9.6771    7.5181  -10.1174 H   0  0  0  0  0  0  0  0  0  0  0  0
  1  2  1  0  0  0  0
  1  3  2  0  0  0  0
  2  5  2  0  0  0  0
  3  4  1  0  0  0  0
  3 22  1  0  0  0  0
  4  6  1  0  0  0  0
  4 16  2  0  0  0  0
  5 16  1  0  0  0  0
  5 23  1  0  0  0  0
  6 17  1  0  0  0  0
  6 20  2  0  0  0  0
  7 18  1  0  0  0  0
  7 19  1  0  0  0  0
  7 21  2  0  0  0  0
  8  9  1  0  0  0  0
  8 10  1  0  0  0  0
  9 11  1  0  0  0  0
 10 18  1  0  0  0  0
 11 18  1  0  0  0  0
 12 14  1  0  0  0  0
 12 17  1  0  0  0  0
 13 15  1  0  0  0  0
 13 17  1  0  0  0  0
 14 19  1  0  0  0  0
 15 19  1  0  0  0  0
  1 24  1  0  0  0  0
  2 25  1  0  0  0  0
  8 26  1  0  0  0  0
  8 27  1  0  0  0  0
  9 28  1  0  0  0  0
  9 29  1  0  0  0  0
 10 30  1  0  0  0  0
 10 31  1  0  0  0  0
 11 32  1  0  0  0  0
 11 33  1  0  0  0  0
 12 34  1  0  0  0  0
 12 35  1  0  0  0  0
 13 36  1  0  0  0  0
 13 37  1  0  0  0  0
 14 38  1  0  0  0  0
 14 39  1  0  0  0  0
 15 40  1  0  0  0  0
 15 41  1  0  0  0  0
M  END
> <id>
EN300-26598742

> <smiles>
ClC=1C=CC(Cl)=C(N1)C(=O)N2CCN(CC2)C(=O)N3CCCC3

> <IUPAC Name>
1-(3,6-dichloropyridine-2-carbonyl)-4-(pyrrolidine-1-carbonyl)piperazine

> <CAS>
1147536-90-0

> <URL>
https://www.enaminestore.com/catalog/EN300-26598742

> <ROCS_ShapeQuery>
_x0404_0B

> <ROCS_TanimotoCombo>
0.442 

> <ROCS_ShapeTanimoto>
0.363 

> <ROCS_ColorTanimoto>
0.079 

> <ROCS_RefTversky>
0.319 

> <ROCS_RefColorTversky>
0.083 

> <ROCS_RefTverskyCombo>
0.402 

> <ROCS_FitTversky>
1.611 

> <ROCS_FitColorTversky>
0.630 

> <ROCS_FitTverskyCombo>
2.242 

> <ROCS_ColorScore>
-5.974

> <ROCS_Overlap>
2128.222

> <ROCS_Rank>
191                 

$$$$
untitled-dbase-160980_35
  -OEChem-08222312023D

 51 53  0     0  0  0  0  0  0999 V2000
   -9.1655    1.7367   -9.3128 C   0  0  0  0  0  0  0  0  0  0  0  0
   -9.0079    3.4961   -8.1508 C   0  0  0  0  0  0  0  0  0  0  0  0
   -8.9099    3.9211   -9.4593 C   0  0  0  0  0  0  0  0  0  0  0  0
   -8.6685    5.0802  -15.2661 C   0  0  0  0  0  0  0  0  0  0  0  0
   -8.9474    4.4261   -7.0036 C   0  0  0  0  0  0  0  0  0  0  0  0
  -10.0812    5.8957  -10.5040 C   0  0  0  0  0  0  0  0  0  0  0  0
   -7.5927    5.5329  -10.9122 C   0  0  0  0  0  0  0  0  0  0  0  0
  -10.3654    5.4177  -11.9321 C   0  0  0  0  0  0  0  0  0  0  0  0
   -7.8956    5.0994  -12.3507 C   0  0  0  0  0  0  0  0  0  0  0  0
   -9.1846    5.8673   -7.4975 C   0  0  0  0  0  0  0  0  0  0  0  0
   -8.7608    5.3515   -9.9130 C   0  0  0  0  0  0  0  0  0  0  0  0
   -9.2055    5.6851  -12.9094 C   0  0  0  0  0  0  0  0  0  0  0  0
   -9.0554    7.1905  -13.1845 C   0  0  0  0  0  0  0  0  0  0  0  0
   -7.3831    4.7449  -17.7930 C   0  0  0  0  0  0  0  0  0  0  0  0
   -9.6101    3.9163  -18.6072 C   0  0  0  0  0  0  0  0  0  0  0  0
   -9.3834    6.2722  -17.7667 C   0  0  0  0  0  0  0  0  0  0  0  0
   -8.8980    4.8315  -17.6134 C   0  0  0  0  0  0  0  0  0  0  0  0
   -9.1568    2.1417   -8.0606 N   0  0  0  0  0  0  0  0  0  0  0  0
   -9.0253    2.7767  -10.1961 N   0  0  0  0  0  0  0  0  0  0  0  0
   -8.4044    6.1835   -8.7119 N   0  0  0  0  0  0  0  0  0  0  0  0
   -9.5049    5.0342  -14.1779 N   0  0  0  0  0  0  0  0  0  0  0  0
   -7.5871    5.6564  -15.3225 O   0  0  0  0  0  0  0  0  0  0  0  0
   -9.2274    4.3771  -16.2960 O   0  0  0  0  0  0  0  0  0  0  0  0
   -9.2672    0.7146   -9.6492 H   0  0  0  0  0  0  0  0  0  0  0  0
   -9.7220    4.1496   -6.2783 H   0  0  0  0  0  0  0  0  0  0  0  0
   -7.9764    4.3581   -6.5018 H   0  0  0  0  0  0  0  0  0  0  0  0
  -10.0802    6.9990  -10.4941 H   0  0  0  0  0  0  0  0  0  0  0  0
  -10.9303    5.6140   -9.8603 H   0  0  0  0  0  0  0  0  0  0  0  0
   -6.7100    4.9668  -10.5535 H   0  0  0  0  0  0  0  0  0  0  0  0
   -7.2453    6.5839  -10.9251 H   0  0  0  0  0  0  0  0  0  0  0  0
  -10.5990    4.3417  -11.9097 H   0  0  0  0  0  0  0  0  0  0  0  0
  -11.2810    5.9072  -12.2993 H   0  0  0  0  0  0  0  0  0  0  0  0
   -7.0526    5.3918  -12.9973 H   0  0  0  0  0  0  0  0  0  0  0  0
   -7.9255    3.9986  -12.3939 H   0  0  0  0  0  0  0  0  0  0  0  0
  -10.2478    5.9993   -7.7193 H   0  0  0  0  0  0  0  0  0  0  0  0
   -8.9440    6.5836   -6.7055 H   0  0  0  0  0  0  0  0  0  0  0  0
   -8.2327    7.3502  -13.8747 H   0  0  0  0  0  0  0  0  0  0  0  0
   -8.8535    7.7085  -12.2519 H   0  0  0  0  0  0  0  0  0  0  0  0
   -9.9746    7.5704  -13.6201 H   0  0  0  0  0  0  0  0  0  0  0  0
   -6.8683    5.4005  -17.0815 H   0  0  0  0  0  0  0  0  0  0  0  0
   -7.0178    3.7226  -17.6510 H   0  0  0  0  0  0  0  0  0  0  0  0
   -7.0880    5.0821  -18.7932 H   0  0  0  0  0  0  0  0  0  0  0  0
  -10.6973    3.9752  -18.4820 H   0  0  0  0  0  0  0  0  0  0  0  0
   -9.3362    2.8685  -18.4383 H   0  0  0  0  0  0  0  0  0  0  0  0
   -9.3658    4.1760  -19.6423 H   0  0  0  0  0  0  0  0  0  0  0  0
  -10.4701    6.3345  -17.6380 H   0  0  0  0  0  0  0  0  0  0  0  0
   -8.9103    6.9370  -17.0368 H   0  0  0  0  0  0  0  0  0  0  0  0
   -9.1691    6.6506  -18.7727 H   0  0  0  0  0  0  0  0  0  0  0  0
   -9.0076    2.7042  -11.2073 H   0  0  0  0  0  0  0  0  0  0  0  0
   -8.5593    7.1675   -8.9382 H   0  0  0  0  0  0  0  0  0  0  0  0
  -10.3723    4.5227  -14.2612 H   0  0  0  0  0  0  0  0  0  0  0  0
  1 18  2  0  0  0  0
  1 19  1  0  0  0  0
  2  3  2  0  0  0  0
  2  5  1  0  0  0  0
  2 18  1  0  0  0  0
  3 11  1  0  0  0  0
  3 19  1  0  0  0  0
  4 21  1  0  0  0  0
  4 22  2  0  0  0  0
  4 23  1  0  0  0  0
  5 10  1  0  0  0  0
  6  8  1  0  0  0  0
  6 11  1  0  0  0  0
  7  9  1  0  0  0  0
  7 11  1  0  0  0  0
  8 12  1  0  0  0  0
  9 12  1  0  0  0  0
 10 20  1  0  0  0  0
 11 20  1  0  0  0  0
 12 13  1  0  0  0  0
 12 21  1  0  0  0  0
 14 17  1  0  0  0  0
 15 17  1  0  0  0  0
 16 17  1  0  0  0  0
 17 23  1  0  0  0  0
  1 24  1  0  0  0  0
  5 25  1  0  0  0  0
  5 26  1  0  0  0  0
  6 27  1  0  0  0  0
  6 28  1  0  0  0  0
  7 29  1  0  0  0  0
  7 30  1  0  0  0  0
  8 31  1  0  0  0  0
  8 32  1  0  0  0  0
  9 33  1  0  0  0  0
  9 34  1  0  0  0  0
 10 35  1  0  0  0  0
 10 36  1  0  0  0  0
 13 37  1  0  0  0  0
 13 38  1  0  0  0  0
 13 39  1  0  0  0  0
 14 40  1  0  0  0  0
 14 41  1  0  0  0  0
 14 42  1  0  0  0  0
 15 43  1  0  0  0  0
 15 44  1  0  0  0  0
 15 45  1  0  0  0  0
 16 46  1  0  0  0  0
 16 47  1  0  0  0  0
 16 48  1  0  0  0  0
 19 49  1  0  0  0  0
 20 50  1  0  0  0  0
 21 51  1  0  0  0  0
M  END
> <id>
EN300-1077001

> <smiles>
CC(C)(C)OC(=O)NC1(C)CCC2(CC1)NCCC=3N=CNC32

> <IUPAC Name>
tert-butyl N-{4-methyl-3',5',6',7'-tetrahydrospiro[cyclohexane-1,4'-imidazo[4,5-c]pyridine]-4-yl}carbamate

> <CAS>
2138243-02-2

> <URL>
https://www.enaminestore.com/catalog/EN300-1077001

> <ROCS_ShapeQuery>
_x0404_0B

> <ROCS_TanimotoCombo>
0.441 

> <ROCS_ShapeTanimoto>
0.362 

> <ROCS_ColorTanimoto>
0.079 

> <ROCS_RefTversky>
0.319 

> <ROCS_RefColorTversky>
0.088 

> <ROCS_RefTverskyCombo>
0.407 

> <ROCS_FitTversky>
1.598 

> <ROCS_FitColorTversky>
0.446 

> <ROCS_FitTverskyCombo>
2.044 

> <ROCS_ColorScore>
-6.355

> <ROCS_Overlap>
2130.374

> <ROCS_Rank>
192                 

$$$$
untitled-dbase-6318_3
  -OEChem-08222312023D

 38 41  0     0  0  0  0  0  0999 V2000
   -9.3402    4.1231  -16.3695 C   0  0  0  0  0  0  0  0  0  0  0  0
   -9.5025    4.4101  -15.0142 C   0  0  0  0  0  0  0  0  0  0  0  0
   -7.3931    5.5880  -15.0111 C   0  0  0  0  0  0  0  0  0  0  0  0
   -8.8778    4.6922  -10.6579 C   0  0  0  0  0  0  0  0  0  0  0  0
   -8.9803    3.8503   -9.5027 C   0  0  0  0  0  0  0  0  0  0  0  0
   -8.2043    4.5685  -17.0457 C   0  0  0  0  0  0  0  0  0  0  0  0
   -8.5289    5.1426  -14.3350 C   0  0  0  0  0  0  0  0  0  0  0  0
   -7.2308    5.3009  -16.3665 C   0  0  0  0  0  0  0  0  0  0  0  0
   -8.9820    4.6007   -8.3409 C   0  0  0  0  0  0  0  0  0  0  0  0
   -8.8310    6.0307  -10.3241 C   0  0  0  0  0  0  0  0  0  0  0  0
   -8.8022    4.3192  -12.0655 C   0  0  0  0  0  0  0  0  0  0  0  0
   -8.7096    6.7650  -12.4363 C   0  0  0  0  0  0  0  0  0  0  0  0
   -9.0415    2.3510   -9.4695 C   0  0  0  0  0  0  0  0  0  0  0  0
   -9.0837    4.0469   -6.9538 C   0  0  0  0  0  0  0  0  0  0  0  0
   -9.4846    1.8185   -8.0979 C   0  0  0  0  0  0  0  0  0  0  0  0
   -8.7714    2.5437   -6.9497 C   0  0  0  0  0  0  0  0  0  0  0  0
   -8.0684    4.2402  -18.4976 C   0  0  0  0  0  0  0  0  0  0  0  0
   -8.7610    7.0826  -11.1757 N   0  0  0  0  0  0  0  0  0  0  0  0
   -8.6958    5.4372  -12.9385 N   0  0  0  0  0  0  0  0  0  0  0  0
   -8.7836    3.1404  -12.4096 O   0  0  0  0  0  0  0  0  0  0  0  0
   -8.8922    6.2724   -8.6345 S   0  0  0  0  0  0  0  0  0  0  0  0
   -8.7649    8.1259  -13.5567 S   0  0  0  0  0  0  0  0  0  0  0  0
   -5.8121    5.8679  -17.1700 Cl  0  0  0  0  0  0  0  0  0  0  0  0
  -10.1048    3.5515  -16.8891 H   0  0  0  0  0  0  0  0  0  0  0  0
  -10.3913    4.0574  -14.4973 H   0  0  0  0  0  0  0  0  0  0  0  0
   -6.6359    6.1586  -14.4769 H   0  0  0  0  0  0  0  0  0  0  0  0
   -9.7522    2.0155  -10.2350 H   0  0  0  0  0  0  0  0  0  0  0  0
   -8.0639    1.9222   -9.7164 H   0  0  0  0  0  0  0  0  0  0  0  0
   -8.3647    4.5689   -6.3102 H   0  0  0  0  0  0  0  0  0  0  0  0
  -10.0830    4.2114   -6.5358 H   0  0  0  0  0  0  0  0  0  0  0  0
  -10.5700    1.9312   -7.9959 H   0  0  0  0  0  0  0  0  0  0  0  0
   -9.2667    0.7446   -8.0338 H   0  0  0  0  0  0  0  0  0  0  0  0
   -7.6886    2.3950   -7.0272 H   0  0  0  0  0  0  0  0  0  0  0  0
   -9.0882    2.1035   -5.9956 H   0  0  0  0  0  0  0  0  0  0  0  0
   -8.5207    5.0296  -19.1082 H   0  0  0  0  0  0  0  0  0  0  0  0
   -7.0146    4.1369  -18.7824 H   0  0  0  0  0  0  0  0  0  0  0  0
   -8.5591    3.2886  -18.7350 H   0  0  0  0  0  0  0  0  0  0  0  0
   -8.8470    9.0795  -12.6247 H   0  0  0  0  0  0  0  0  0  0  0  0
  1  2  1  0  0  0  0
  1  6  2  0  0  0  0
  2  7  2  0  0  0  0
  3  7  1  0  0  0  0
  3  8  2  0  0  0  0
  4  5  1  0  0  0  0
  4 10  2  0  0  0  0
  4 11  1  0  0  0  0
  5  9  2  0  0  0  0
  5 13  1  0  0  0  0
  6  8  1  0  0  0  0
  6 17  1  0  0  0  0
  7 19  1  0  0  0  0
  8 23  1  0  0  0  0
  9 14  1  0  0  0  0
  9 21  1  0  0  0  0
 10 18  1  0  0  0  0
 10 21  1  0  0  0  0
 11 19  1  0  0  0  0
 11 20  2  0  0  0  0
 12 18  2  0  0  0  0
 12 19  1  0  0  0  0
 12 22  1  0  0  0  0
 13 15  1  0  0  0  0
 14 16  1  0  0  0  0
 15 16  1  0  0  0  0
  1 24  1  0  0  0  0
  2 25  1  0  0  0  0
  3 26  1  0  0  0  0
 13 27  1  0  0  0  0
 13 28  1  0  0  0  0
 14 29  1  0  0  0  0
 14 30  1  0  0  0  0
 15 31  1  0  0  0  0
 15 32  1  0  0  0  0
 16 33  1  0  0  0  0
 16 34  1  0  0  0  0
 17 35  1  0  0  0  0
 17 36  1  0  0  0  0
 17 37  1  0  0  0  0
 22 38  1  0  0  0  0
M  END
> <id>
EN300-03361

> <smiles>
CC=1C=CC(=CC1Cl)N2C(S)=NC=3SC=4CCCCC4C3C2=O

> <MDLNUMBER>
MFCD03476822

> <IUPAC Name>
4-(3-chloro-4-methylphenyl)-5-sulfanyl-8-thia-4,6-diazatricyclo[7.4.0.0,2,7]trideca-1(9),2(7),5-trien-3-one

> <CAS>
380442-85-3

> <Purity>
95

> <URL>
https://www.enaminestore.com/catalog/EN300-03361

> <ROCS_ShapeQuery>
_x0404_0B

> <ROCS_TanimotoCombo>
0.441 

> <ROCS_ShapeTanimoto>
0.377 

> <ROCS_ColorTanimoto>
0.064 

> <ROCS_RefTversky>
0.328 

> <ROCS_RefColorTversky>
0.069 

> <ROCS_RefTverskyCombo>
0.398 

> <ROCS_FitTversky>
1.649 

> <ROCS_FitColorTversky>
0.478 

> <ROCS_FitTverskyCombo>
2.127 

> <ROCS_ColorScore>
-5.001

> <ROCS_Overlap>
2191.695

> <ROCS_Rank>
193                 

$$$$
untitled-dbase-137112_304
  -OEChem-08222312023D

 48 50  0     0  0  0  0  0  0999 V2000
   -9.0895    2.0217   -8.7524 C   0  0  0  0  0  0  0  0  0  0  0  0
   -9.1037    3.9936   -7.9892 C   0  0  0  0  0  0  0  0  0  0  0  0
   -8.9142    4.1356   -9.3475 C   0  0  0  0  0  0  0  0  0  0  0  0
   -8.5491    5.4969  -15.1194 C   0  0  0  0  0  0  0  0  0  0  0  0
   -9.1715    5.1488   -7.0698 C   0  0  0  0  0  0  0  0  0  0  0  0
   -9.9361    5.7702  -12.3950 C   0  0  0  0  0  0  0  0  0  0  0  0
   -7.6853    4.6244  -12.3033 C   0  0  0  0  0  0  0  0  0  0  0  0
  -10.0857    5.7778  -10.8695 C   0  0  0  0  0  0  0  0  0  0  0  0
   -7.5487    5.4508  -11.0184 C   0  0  0  0  0  0  0  0  0  0  0  0
   -9.4152    6.4366   -7.8825 C   0  0  0  0  0  0  0  0  0  0  0  0
   -9.1077    4.5840  -12.8711 C   0  0  0  0  0  0  0  0  0  0  0  0
   -8.7844    5.4426  -10.0895 C   0  0  0  0  0  0  0  0  0  0  0  0
   -6.3061    5.1113  -16.8428 C   0  0  0  0  0  0  0  0  0  0  0  0
   -7.9799    5.1128  -18.7157 C   0  0  0  0  0  0  0  0  0  0  0  0
   -7.6997    7.1595  -17.2872 C   0  0  0  0  0  0  0  0  0  0  0  0
   -7.6627    5.6322  -17.3150 C   0  0  0  0  0  0  0  0  0  0  0  0
   -9.2052    2.6828   -7.6201 N   0  0  0  0  0  0  0  0  0  0  0  0
   -8.9168    2.8569   -9.8268 N   0  0  0  0  0  0  0  0  0  0  0  0
   -8.5447    6.5262   -9.0748 N   0  0  0  0  0  0  0  0  0  0  0  0
   -9.0811    4.5123  -14.3134 N   0  0  0  0  0  0  0  0  0  0  0  0
   -8.0385    6.5423  -14.7309 O   0  0  0  0  0  0  0  0  0  0  0  0
   -8.6743    5.1355  -16.4314 O   0  0  0  0  0  0  0  0  0  0  0  0
   -9.1226    0.9474   -8.8668 H   0  0  0  0  0  0  0  0  0  0  0  0
   -9.9716    5.0128   -6.3361 H   0  0  0  0  0  0  0  0  0  0  0  0
   -8.2236    5.2274   -6.5263 H   0  0  0  0  0  0  0  0  0  0  0  0
  -10.9372    5.7323  -12.8446 H   0  0  0  0  0  0  0  0  0  0  0  0
   -9.4836    6.7134  -12.7272 H   0  0  0  0  0  0  0  0  0  0  0  0
   -6.9836    5.0125  -13.0691 H   0  0  0  0  0  0  0  0  0  0  0  0
   -7.3406    3.5917  -12.0946 H   0  0  0  0  0  0  0  0  0  0  0  0
  -10.4919    6.7512  -10.5544 H   0  0  0  0  0  0  0  0  0  0  0  0
  -10.8660    5.0452  -10.6037 H   0  0  0  0  0  0  0  0  0  0  0  0
   -6.6653    5.0697  -10.4693 H   0  0  0  0  0  0  0  0  0  0  0  0
   -7.2778    6.4903  -11.2897 H   0  0  0  0  0  0  0  0  0  0  0  0
  -10.4662    6.5012   -8.1848 H   0  0  0  0  0  0  0  0  0  0  0  0
   -9.2202    7.3009   -7.2392 H   0  0  0  0  0  0  0  0  0  0  0  0
   -9.5916    3.6540  -12.5355 H   0  0  0  0  0  0  0  0  0  0  0  0
   -6.0747    5.4820  -15.8378 H   0  0  0  0  0  0  0  0  0  0  0  0
   -6.2782    4.0170  -16.8248 H   0  0  0  0  0  0  0  0  0  0  0  0
   -5.5015    5.4673  -17.4964 H   0  0  0  0  0  0  0  0  0  0  0  0
   -8.9525    5.4841  -19.0585 H   0  0  0  0  0  0  0  0  0  0  0  0
   -8.0481    4.0189  -18.7201 H   0  0  0  0  0  0  0  0  0  0  0  0
   -7.2179    5.4156  -19.4411 H   0  0  0  0  0  0  0  0  0  0  0  0
   -8.6727    7.5334  -17.6259 H   0  0  0  0  0  0  0  0  0  0  0  0
   -7.5106    7.5493  -16.2817 H   0  0  0  0  0  0  0  0  0  0  0  0
   -6.9523    7.5799  -17.9698 H   0  0  0  0  0  0  0  0  0  0  0  0
   -8.8145    2.5732  -10.7942 H   0  0  0  0  0  0  0  0  0  0  0  0
   -8.6524    7.4374   -9.5043 H   0  0  0  0  0  0  0  0  0  0  0  0
   -9.4765    3.6901  -14.7593 H   0  0  0  0  0  0  0  0  0  0  0  0
  1 17  2  0  0  0  0
  1 18  1  0  0  0  0
  2  3  2  0  0  0  0
  2  5  1  0  0  0  0
  2 17  1  0  0  0  0
  3 12  1  0  0  0  0
  3 18  1  0  0  0  0
  4 20  1  0  0  0  0
  4 21  2  0  0  0  0
  4 22  1  0  0  0  0
  5 10  1  0  0  0  0
  6  8  1  0  0  0  0
  6 11  1  0  0  0  0
  7  9  1  0  0  0  0
  7 11  1  0  0  0  0
  8 12  1  0  0  0  0
  9 12  1  0  0  0  0
 10 19  1  0  0  0  0
 11 20  1  0  0  0  0
 12 19  1  0  0  0  0
 13 16  1  0  0  0  0
 14 16  1  0  0  0  0
 15 16  1  0  0  0  0
 16 22  1  0  0  0  0
  1 23  1  0  0  0  0
  5 24  1  0  0  0  0
  5 25  1  0  0  0  0
  6 26  1  0  0  0  0
  6 27  1  0  0  0  0
  7 28  1  0  0  0  0
  7 29  1  0  0  0  0
  8 30  1  0  0  0  0
  8 31  1  0  0  0  0
  9 32  1  0  0  0  0
  9 33  1  0  0  0  0
 10 34  1  0  0  0  0
 10 35  1  0  0  0  0
 11 36  1  0  0  0  0
 13 37  1  0  0  0  0
 13 38  1  0  0  0  0
 13 39  1  0  0  0  0
 14 40  1  0  0  0  0
 14 41  1  0  0  0  0
 14 42  1  0  0  0  0
 15 43  1  0  0  0  0
 15 44  1  0  0  0  0
 15 45  1  0  0  0  0
 18 46  1  0  0  0  0
 19 47  1  0  0  0  0
 20 48  1  0  0  0  0
M  END
> <id>
EN300-1076959

> <smiles>
CC(C)(C)OC(=O)NC1CCC2(CC1)NCCC=3N=CNC32

> <IUPAC Name>
tert-butyl N-{3',5',6',7'-tetrahydrospiro[cyclohexane-1,4'-imidazo[4,5-c]pyridine]-4-yl}carbamate

> <CAS>
2137896-14-9

> <URL>
https://www.enaminestore.com/catalog/EN300-1076959

> <ROCS_ShapeQuery>
_x0404_0B

> <ROCS_TanimotoCombo>
0.441 

> <ROCS_ShapeTanimoto>
0.351 

> <ROCS_ColorTanimoto>
0.090 

> <ROCS_RefTversky>
0.310 

> <ROCS_RefColorTversky>
0.099 

> <ROCS_RefTverskyCombo>
0.409 

> <ROCS_FitTversky>
1.607 

> <ROCS_FitColorTversky>
0.504 

> <ROCS_FitTverskyCombo>
2.111 

> <ROCS_ColorScore>
-7.187

> <ROCS_Overlap>
2067.627

> <ROCS_Rank>
194                 

$$$$
untitled-dbase-106947_207
  -OEChem-08222312023D

 49 51  0     1  0  0  0  0  0999 V2000
   -8.8579    4.5719  -18.0338 C   0  0  0  0  0  0  0  0  0  0  0  0
   -9.7081    4.6333  -16.9353 C   0  0  0  0  0  0  0  0  0  0  0  0
   -7.2257    5.7543  -16.7711 C   0  0  0  0  0  0  0  0  0  0  0  0
   -7.5914    5.1407  -17.9583 C   0  0  0  0  0  0  0  0  0  0  0  0
   -9.2476    5.2695  -15.7938 C   0  0  0  0  0  0  0  0  0  0  0  0
   -9.0183    5.0573   -9.0792 C   0  0  0  0  0  0  0  0  0  0  0  0
   -9.3321    7.5172  -13.4352 C   0  0  0  0  0  0  0  0  0  0  0  0
  -10.5111    6.7795  -14.0720 C   0  0  0  0  0  0  0  0  0  0  0  0
   -9.6217    4.5760  -13.3404 C   0  0  0  0  0  0  0  0  0  0  0  0
   -9.3195    6.6537  -11.0162 C   0  0  0  0  0  0  0  0  0  0  0  0
   -8.0677    4.6191  -11.3445 C   0  0  0  0  0  0  0  0  0  0  0  0
   -8.6011    6.7119  -12.3658 C   0  0  1  0  0  0  0  0  0  0  0  0
   -8.3814    5.2294  -12.7127 C   0  0  2  0  0  0  0  0  0  0  0  0
  -10.1552    5.3562  -14.5651 C   0  0  2  0  0  0  0  0  0  0  0  0
  -10.5893    3.7328   -7.0926 C   0  0  0  0  0  0  0  0  0  0  0  0
   -9.2457    1.6872   -7.6580 C   0  0  0  0  0  0  0  0  0  0  0  0
   -8.1001    3.7163   -6.7206 C   0  0  0  0  0  0  0  0  0  0  0  0
   -9.2446    3.2132   -7.5992 C   0  0  0  0  0  0  0  0  0  0  0  0
   -8.0241    5.8337  -15.6830 N   0  0  0  0  0  0  0  0  0  0  0  0
   -8.8166    5.4323  -10.3962 N   0  0  0  0  0  0  0  0  0  0  0  0
   -9.1578    5.8487   -8.1495 O   0  0  0  0  0  0  0  0  0  0  0  0
  -11.3844    4.7357  -14.9776 O   0  0  0  0  0  0  0  0  0  0  0  0
   -9.0424    3.6961   -8.9320 O   0  0  0  0  0  0  0  0  0  0  0  0
   -6.4100    5.0789  -19.4237 Br  0  0  0  0  0  0  0  0  0  0  0  0
   -9.1960    4.0784  -18.9412 H   0  0  0  0  0  0  0  0  0  0  0  0
  -10.6985    4.1929  -16.9816 H   0  0  0  0  0  0  0  0  0  0  0  0
   -6.2513    6.2175  -16.6478 H   0  0  0  0  0  0  0  0  0  0  0  0
   -8.6149    7.7713  -14.2261 H   0  0  0  0  0  0  0  0  0  0  0  0
   -9.6768    8.4710  -13.0186 H   0  0  0  0  0  0  0  0  0  0  0  0
  -11.3381    6.7205  -13.3518 H   0  0  0  0  0  0  0  0  0  0  0  0
  -10.9021    7.3750  -14.9077 H   0  0  0  0  0  0  0  0  0  0  0  0
   -9.3785    3.5462  -13.6361 H   0  0  0  0  0  0  0  0  0  0  0  0
  -10.4269    4.4729  -12.5998 H   0  0  0  0  0  0  0  0  0  0  0  0
   -9.0983    7.5203  -10.3853 H   0  0  0  0  0  0  0  0  0  0  0  0
  -10.4060    6.5575  -11.1110 H   0  0  0  0  0  0  0  0  0  0  0  0
   -8.3378    3.5627  -11.2500 H   0  0  0  0  0  0  0  0  0  0  0  0
   -7.0058    4.7301  -11.0968 H   0  0  0  0  0  0  0  0  0  0  0  0
   -7.6203    7.1796  -12.1969 H   0  0  0  0  0  0  0  0  0  0  0  0
   -7.5250    5.1144  -13.3873 H   0  0  0  0  0  0  0  0  0  0  0  0
  -10.5925    4.8278   -7.0489 H   0  0  0  0  0  0  0  0  0  0  0  0
  -11.4149    3.4079   -7.7342 H   0  0  0  0  0  0  0  0  0  0  0  0
  -10.7849    3.3822   -6.0727 H   0  0  0  0  0  0  0  0  0  0  0  0
   -8.2828    1.3101   -8.0209 H   0  0  0  0  0  0  0  0  0  0  0  0
  -10.0042    1.3243   -8.3610 H   0  0  0  0  0  0  0  0  0  0  0  0
   -9.4433    1.2452   -6.6760 H   0  0  0  0  0  0  0  0  0  0  0  0
   -7.1355    3.3437   -7.0838 H   0  0  0  0  0  0  0  0  0  0  0  0
   -8.0611    4.8101   -6.6963 H   0  0  0  0  0  0  0  0  0  0  0  0
   -8.2067    3.3487   -5.6936 H   0  0  0  0  0  0  0  0  0  0  0  0
  -11.9836    4.7753  -14.2159 H   0  0  0  0  0  0  0  0  0  0  0  0
  1  2  1  0  0  0  0
  1  4  2  0  0  0  0
  2  5  2  0  0  0  0
  3  4  1  0  0  0  0
  3 19  2  0  0  0  0
  4 24  1  0  0  0  0
  5 14  1  0  0  0  0
  5 19  1  0  0  0  0
  6 20  1  0  0  0  0
  6 21  2  0  0  0  0
  6 23  1  0  0  0  0
  7  8  1  0  0  0  0
  7 12  1  0  0  0  0
  8 14  1  0  0  0  0
  9 13  1  0  0  0  0
  9 14  1  0  0  0  0
 10 12  1  0  0  0  0
 10 20  1  0  0  0  0
 11 13  1  0  0  0  0
 11 20  1  0  0  0  0
 12 13  1  0  0  0  0
 14 22  1  0  0  0  0
 15 18  1  0  0  0  0
 16 18  1  0  0  0  0
 17 18  1  0  0  0  0
 18 23  1  0  0  0  0
  1 25  1  0  0  0  0
  2 26  1  0  0  0  0
  3 27  1  0  0  0  0
  7 28  1  0  0  0  0
  7 29  1  0  0  0  0
  8 30  1  0  0  0  0
  8 31  1  0  0  0  0
  9 32  1  0  0  0  0
  9 33  1  0  0  0  0
 10 34  1  0  0  0  0
 10 35  1  0  0  0  0
 11 36  1  0  0  0  0
 11 37  1  0  0  0  0
 12 38  1  0  0  0  0
 13 39  1  0  0  0  0
 15 40  1  0  0  0  0
 15 41  1  0  0  0  0
 15 42  1  0  0  0  0
 16 43  1  0  0  0  0
 16 44  1  0  0  0  0
 16 45  1  0  0  0  0
 17 46  1  0  0  0  0
 17 47  1  0  0  0  0
 17 48  1  0  0  0  0
 22 49  1  0  0  0  0
M  END
> <id>
EN300-7428275

> <smiles>
CC(C)(C)OC(=O)N1CC2CCC(O)(CC2C1)C=3C=CC(Br)=CN3

> <IUPAC Name>
tert-butyl 5-(5-bromopyridin-2-yl)-5-hydroxy-octahydro-1H-isoindole-2-carboxylate

> <CAS>
2309460-88-4

> <URL>
https://www.enaminestore.com/catalog/EN300-7428275

> <ROCS_ShapeQuery>
_x0404_0B

> <ROCS_TanimotoCombo>
0.441 

> <ROCS_ShapeTanimoto>
0.375 

> <ROCS_ColorTanimoto>
0.066 

> <ROCS_RefTversky>
0.328 

> <ROCS_RefColorTversky>
0.073 

> <ROCS_RefTverskyCombo>
0.401 

> <ROCS_FitTversky>
1.612 

> <ROCS_FitColorTversky>
0.425 

> <ROCS_FitTverskyCombo>
2.037 

> <ROCS_ColorScore>
-5.252

> <ROCS_Overlap>
2192.731

> <ROCS_Rank>
195                 

$$$$
untitled-dbase-91487_731
  -OEChem-08222312023D

 44 46  0     1  0  0  0  0  0999 V2000
   -8.6823    4.6100   -8.0167 C   0  0  0  0  0  0  0  0  0  0  0  0
   -9.0301    3.8468   -6.9077 C   0  0  0  0  0  0  0  0  0  0  0  0
   -9.1006    2.7127   -9.3885 C   0  0  0  0  0  0  0  0  0  0  0  0
   -8.7157    4.0397   -9.2843 C   0  0  0  0  0  0  0  0  0  0  0  0
   -9.4011    2.5286   -7.1183 C   0  0  0  0  0  0  0  0  0  0  0  0
   -8.9086    4.9424  -16.0223 C   0  0  0  0  0  0  0  0  0  0  0  0
   -9.0523    4.4358  -11.8149 C   0  0  0  0  0  0  0  0  0  0  0  0
   -7.8336    5.6061  -13.8026 C   0  0  0  0  0  0  0  0  0  0  0  0
   -9.9610    5.8411  -13.8132 C   0  0  0  0  0  0  0  0  0  0  0  0
   -8.6671    6.3429  -10.4270 C   0  0  0  0  0  0  0  0  0  0  0  0
   -8.3432    4.8447  -10.5129 C   0  0  1  0  0  0  0  0  0  0  0  0
   -8.9100    5.6771  -12.6959 C   0  0  0  0  0  0  0  0  0  0  0  0
   -8.6696    6.5152  -18.4884 C   0  0  0  0  0  0  0  0  0  0  0  0
   -6.4045    5.4490  -18.6933 C   0  0  0  0  0  0  0  0  0  0  0  0
   -8.4705    4.0234  -18.7810 C   0  0  0  0  0  0  0  0  0  0  0  0
   -7.8323    5.2749  -18.1799 C   0  0  0  0  0  0  0  0  0  0  0  0
   -9.4454    1.9397   -8.3344 N   0  0  0  0  0  0  0  0  0  0  0  0
   -8.9227    5.4695  -14.7528 N   0  0  0  0  0  0  0  0  0  0  0  0
   -9.8859    4.3910  -16.5280 O   0  0  0  0  0  0  0  0  0  0  0  0
   -8.7724    6.7942  -11.7856 O   0  0  0  0  0  0  0  0  0  0  0  0
   -6.9319    4.6765  -10.6843 O   0  0  0  0  0  0  0  0  0  0  0  0
   -7.7628    5.1132  -16.7540 O   0  0  0  0  0  0  0  0  0  0  0  0
   -9.8791    1.4678   -5.6173 Br  0  0  0  0  0  0  0  0  0  0  0  0
   -8.3873    5.6475   -7.8838 H   0  0  0  0  0  0  0  0  0  0  0  0
   -9.0054    4.2878   -5.9169 H   0  0  0  0  0  0  0  0  0  0  0  0
   -9.1463    2.2147  -10.3521 H   0  0  0  0  0  0  0  0  0  0  0  0
   -8.6128    3.5428  -12.2720 H   0  0  0  0  0  0  0  0  0  0  0  0
  -10.1144    4.2371  -11.6226 H   0  0  0  0  0  0  0  0  0  0  0  0
   -7.2538    6.5203  -13.9559 H   0  0  0  0  0  0  0  0  0  0  0  0
   -7.1674    4.7405  -13.7767 H   0  0  0  0  0  0  0  0  0  0  0  0
  -10.7996    5.1405  -13.7940 H   0  0  0  0  0  0  0  0  0  0  0  0
  -10.3270    6.8597  -13.9694 H   0  0  0  0  0  0  0  0  0  0  0  0
   -9.6295    6.5374   -9.9416 H   0  0  0  0  0  0  0  0  0  0  0  0
   -7.8813    6.9166   -9.9263 H   0  0  0  0  0  0  0  0  0  0  0  0
   -9.6951    6.3942  -18.1215 H   0  0  0  0  0  0  0  0  0  0  0  0
   -8.2414    7.4144  -18.0335 H   0  0  0  0  0  0  0  0  0  0  0  0
   -8.7452    6.6769  -19.5698 H   0  0  0  0  0  0  0  0  0  0  0  0
   -5.8002    4.5614  -18.4741 H   0  0  0  0  0  0  0  0  0  0  0  0
   -5.9101    6.2901  -18.1939 H   0  0  0  0  0  0  0  0  0  0  0  0
   -6.3823    5.6255  -19.7735 H   0  0  0  0  0  0  0  0  0  0  0  0
   -7.8700    3.1335  -18.5598 H   0  0  0  0  0  0  0  0  0  0  0  0
   -9.4824    3.8619  -18.3956 H   0  0  0  0  0  0  0  0  0  0  0  0
   -8.5216    4.0983  -19.8732 H   0  0  0  0  0  0  0  0  0  0  0  0
   -6.5092    5.0158   -9.8787 H   0  0  0  0  0  0  0  0  0  0  0  0
  1  2  1  0  0  0  0
  1  4  2  0  0  0  0
  2  5  2  0  0  0  0
  3  4  1  0  0  0  0
  3 17  2  0  0  0  0
  4 11  1  0  0  0  0
  5 17  1  0  0  0  0
  5 23  1  0  0  0  0
  6 18  1  0  0  0  0
  6 19  2  0  0  0  0
  6 22  1  0  0  0  0
  7 11  1  0  0  0  0
  7 12  1  0  0  0  0
  8 12  1  0  0  0  0
  8 18  1  0  0  0  0
  9 12  1  0  0  0  0
  9 18  1  0  0  0  0
 10 11  1  0  0  0  0
 10 20  1  0  0  0  0
 11 21  1  0  0  0  0
 12 20  1  0  0  0  0
 13 16  1  0  0  0  0
 14 16  1  0  0  0  0
 15 16  1  0  0  0  0
 16 22  1  0  0  0  0
  1 24  1  0  0  0  0
  2 25  1  0  0  0  0
  3 26  1  0  0  0  0
  7 27  1  0  0  0  0
  7 28  1  0  0  0  0
  8 29  1  0  0  0  0
  8 30  1  0  0  0  0
  9 31  1  0  0  0  0
  9 32  1  0  0  0  0
 10 33  1  0  0  0  0
 10 34  1  0  0  0  0
 13 35  1  0  0  0  0
 13 36  1  0  0  0  0
 13 37  1  0  0  0  0
 14 38  1  0  0  0  0
 14 39  1  0  0  0  0
 14 40  1  0  0  0  0
 15 41  1  0  0  0  0
 15 42  1  0  0  0  0
 15 43  1  0  0  0  0
 21 44  1  0  0  0  0
M  END
> <id>
EN300-7428894

> <smiles>
CC(C)(C)OC(=O)N1CC2(C1)CC(O)(CO2)C=3C=CC(Br)=NC3

> <IUPAC Name>
tert-butyl 7-(6-bromopyridin-3-yl)-7-hydroxy-5-oxa-2-azaspiro[3.4]octane-2-carboxylate

> <CAS>
2309455-73-8

> <URL>
https://www.enaminestore.com/catalog/EN300-7428894

> <ROCS_ShapeQuery>
_x0404_0B

> <ROCS_TanimotoCombo>
0.441 

> <ROCS_ShapeTanimoto>
0.382 

> <ROCS_ColorTanimoto>
0.060 

> <ROCS_RefTversky>
0.331 

> <ROCS_RefColorTversky>
0.067 

> <ROCS_RefTverskyCombo>
0.398 

> <ROCS_FitTversky>
1.665 

> <ROCS_FitColorTversky>
0.362 

> <ROCS_FitTverskyCombo>
2.028 

> <ROCS_ColorScore>
-4.813

> <ROCS_Overlap>
2210.936

> <ROCS_Rank>
196                 

$$$$
untitled-dbase-103103_219
  -OEChem-08222312023D

 62 65  0     1  0  0  0  0  0999 V2000
   -9.1629    4.3111   -9.2613 B   0  0  0  0  0  0  0  0  0  0  0  0
   -9.3209    4.6958  -13.9721 C   0  0  0  0  0  0  0  0  0  0  0  0
   -9.8729    4.5358  -18.4945 C   0  0  0  0  0  0  0  0  0  0  0  0
   -9.9665    4.2177  -16.9892 C   0  0  0  0  0  0  0  0  0  0  0  0
   -8.5645    5.3104  -18.6910 C   0  0  0  0  0  0  0  0  0  0  0  0
   -8.0883    6.2248  -10.8148 C   0  0  0  0  0  0  0  0  0  0  0  0
   -7.7141    5.4961  -12.1035 C   0  0  0  0  0  0  0  0  0  0  0  0
  -10.0443    5.1509  -11.6653 C   0  0  0  0  0  0  0  0  0  0  0  0
   -6.9282    4.6250  -14.9882 C   0  0  0  0  0  0  0  0  0  0  0  0
   -9.3547    5.4953  -10.3445 C   0  0  1  0  0  0  0  0  0  0  0  0
   -8.9000    5.1112  -16.3562 C   0  0  2  0  0  0  0  0  0  0  0  0
   -7.7992    5.0255  -17.4119 C   0  0  2  0  0  0  0  0  0  0  0  0
   -6.1998    5.7289  -15.8125 C   0  0  0  0  0  0  0  0  0  0  0  0
   -8.7506    3.2609   -7.2704 C   0  0  0  0  0  0  0  0  0  0  0  0
   -9.0554    2.2010   -8.3818 C   0  0  0  0  0  0  0  0  0  0  0  0
   -4.7396    5.3210  -16.0343 C   0  0  0  0  0  0  0  0  0  0  0  0
   -6.2466    7.0757  -15.0833 C   0  0  0  0  0  0  0  0  0  0  0  0
   -9.9005    3.4975   -6.2654 C   0  0  0  0  0  0  0  0  0  0  0  0
   -7.4698    2.9959   -6.4662 C   0  0  0  0  0  0  0  0  0  0  0  0
  -10.1226    1.1642   -8.0032 C   0  0  0  0  0  0  0  0  0  0  0  0
   -7.8191    1.4376   -8.9082 C   0  0  0  0  0  0  0  0  0  0  0  0
   -8.9773    5.0263  -12.6665 N   0  0  0  0  0  0  0  0  0  0  0  0
   -8.3932    4.7895  -15.0161 N   0  0  0  0  0  0  0  0  0  0  0  0
  -10.4812    4.3152  -14.2003 O   0  0  0  0  0  0  0  0  0  0  0  0
   -8.5696    4.5080   -8.0163 O   0  0  0  0  0  0  0  0  0  0  0  0
   -9.5718    2.9999   -9.4952 O   0  0  0  0  0  0  0  0  0  0  0  0
   -6.7736    5.9487  -17.1205 O   0  0  0  0  0  0  0  0  0  0  0  0
   -9.8802    3.6100  -19.0786 H   0  0  0  0  0  0  0  0  0  0  0  0
  -10.7251    5.1406  -18.8213 H   0  0  0  0  0  0  0  0  0  0  0  0
  -10.9694    4.4131  -16.5993 H   0  0  0  0  0  0  0  0  0  0  0  0
   -9.7372    3.1581  -16.8244 H   0  0  0  0  0  0  0  0  0  0  0  0
   -8.0192    4.9848  -19.5789 H   0  0  0  0  0  0  0  0  0  0  0  0
   -8.7596    6.3811  -18.8014 H   0  0  0  0  0  0  0  0  0  0  0  0
   -7.2776    6.1232  -10.0798 H   0  0  0  0  0  0  0  0  0  0  0  0
   -8.2549    7.2952  -10.9864 H   0  0  0  0  0  0  0  0  0  0  0  0
   -7.2650    6.2088  -12.8043 H   0  0  0  0  0  0  0  0  0  0  0  0
   -7.0219    4.6653  -11.9278 H   0  0  0  0  0  0  0  0  0  0  0  0
  -10.5780    4.1887  -11.6250 H   0  0  0  0  0  0  0  0  0  0  0  0
  -10.7613    5.9171  -11.9946 H   0  0  0  0  0  0  0  0  0  0  0  0
   -6.7245    3.6408  -15.4179 H   0  0  0  0  0  0  0  0  0  0  0  0
   -6.5656    4.6483  -13.9611 H   0  0  0  0  0  0  0  0  0  0  0  0
   -9.9736    6.2253   -9.8367 H   0  0  0  0  0  0  0  0  0  0  0  0
   -9.2874    6.1552  -16.3011 H   0  0  0  0  0  0  0  0  0  0  0  0
   -7.3717    4.0142  -17.4728 H   0  0  0  0  0  0  0  0  0  0  0  0
   -4.2307    6.0903  -16.6091 H   0  0  0  0  0  0  0  0  0  0  0  0
   -4.7037    4.3807  -16.5781 H   0  0  0  0  0  0  0  0  0  0  0  0
   -4.2457    5.2018  -15.0735 H   0  0  0  0  0  0  0  0  0  0  0  0
   -5.7332    7.8268  -15.6771 H   0  0  0  0  0  0  0  0  0  0  0  0
   -5.7581    6.9815  -14.1176 H   0  0  0  0  0  0  0  0  0  0  0  0
   -7.2813    7.3732  -14.9386 H   0  0  0  0  0  0  0  0  0  0  0  0
   -9.5888    4.2427   -5.5444 H   0  0  0  0  0  0  0  0  0  0  0  0
  -10.1238    2.5653   -5.7618 H   0  0  0  0  0  0  0  0  0  0  0  0
  -10.7723    3.8455   -6.8051 H   0  0  0  0  0  0  0  0  0  0  0  0
   -7.3416    3.7778   -5.7234 H   0  0  0  0  0  0  0  0  0  0  0  0
   -6.6165    2.9901   -7.1380 H   0  0  0  0  0  0  0  0  0  0  0  0
   -7.5479    2.0330   -5.9699 H   0  0  0  0  0  0  0  0  0  0  0  0
  -10.2659    0.4751   -8.8302 H   0  0  0  0  0  0  0  0  0  0  0  0
  -11.0582    1.6716   -7.7871 H   0  0  0  0  0  0  0  0  0  0  0  0
   -9.7963    0.6146   -7.1250 H   0  0  0  0  0  0  0  0  0  0  0  0
   -8.1378    0.7345   -9.6674 H   0  0  0  0  0  0  0  0  0  0  0  0
   -7.3561    0.9091   -8.0844 H   0  0  0  0  0  0  0  0  0  0  0  0
   -7.1212    2.1492   -9.3313 H   0  0  0  0  0  0  0  0  0  0  0  0
  1 10  1  0  0  0  0
  1 25  1  0  0  0  0
  1 26  1  0  0  0  0
  2 22  1  0  0  0  0
  2 23  1  0  0  0  0
  2 24  2  0  0  0  0
  3  4  1  0  0  0  0
  3  5  1  0  0  0  0
  4 11  1  1  0  0  0
  5 12  1  6  0  0  0
  6  7  1  0  0  0  0
  6 10  1  0  0  0  0
  7 22  1  0  0  0  0
  8 10  1  0  0  0  0
  8 22  1  0  0  0  0
  9 13  1  0  0  0  0
  9 23  1  0  0  0  0
 11 12  1  0  0  0  0
 11 23  1  0  0  0  0
 12 27  1  0  0  0  0
 13 16  1  0  0  0  0
 13 17  1  0  0  0  0
 13 27  1  0  0  0  0
 14 15  1  0  0  0  0
 14 18  1  0  0  0  0
 14 19  1  0  0  0  0
 14 25  1  0  0  0  0
 15 20  1  0  0  0  0
 15 21  1  0  0  0  0
 15 26  1  0  0  0  0
  3 28  1  0  0  0  0
  3 29  1  0  0  0  0
  4 30  1  0  0  0  0
  4 31  1  0  0  0  0
  5 32  1  0  0  0  0
  5 33  1  0  0  0  0
  6 34  1  0  0  0  0
  6 35  1  0  0  0  0
  7 36  1  0  0  0  0
  7 37  1  0  0  0  0
  8 38  1  0  0  0  0
  8 39  1  0  0  0  0
  9 40  1  0  0  0  0
  9 41  1  0  0  0  0
 10 42  1  0  0  0  0
 11 43  1  0  0  0  0
 12 44  1  0  0  0  0
 16 45  1  0  0  0  0
 16 46  1  0  0  0  0
 16 47  1  0  0  0  0
 17 48  1  0  0  0  0
 17 49  1  0  0  0  0
 17 50  1  0  0  0  0
 18 51  1  0  0  0  0
 18 52  1  0  0  0  0
 18 53  1  0  0  0  0
 19 54  1  0  0  0  0
 19 55  1  0  0  0  0
 19 56  1  0  0  0  0
 20 57  1  0  0  0  0
 20 58  1  0  0  0  0
 20 59  1  0  0  0  0
 21 60  1  0  0  0  0
 21 61  1  0  0  0  0
 21 62  1  0  0  0  0
M  END
> <id>
EN300-6735730

> <smiles>
CC1(C)OB(OC1(C)C)C2CCN(C2)C(=O)N3CC(C)(C)O[C@@H]4CCC[C@H]43

> <IUPAC Name>
1-[(4aR,7aR)-2,2-dimethyl-octahydrocyclopenta[b][1,4]oxazine-4-carbonyl]-3-(4,4,5,5-tetramethyl-1,3,2-dioxaborolan-2-yl)pyrrolidine

> <URL>
https://www.enaminestore.com/catalog/EN300-6735730

> <ROCS_ShapeQuery>
_x0404_0B

> <ROCS_TanimotoCombo>
0.441 

> <ROCS_ShapeTanimoto>
0.377 

> <ROCS_ColorTanimoto>
0.064 

> <ROCS_RefTversky>
0.335 

> <ROCS_RefColorTversky>
0.071 

> <ROCS_RefTverskyCombo>
0.406 

> <ROCS_FitTversky>
1.499 

> <ROCS_FitColorTversky>
0.414 

> <ROCS_FitTverskyCombo>
1.913 

> <ROCS_ColorScore>
-5.118

> <ROCS_Overlap>
2238.400

> <ROCS_Rank>
197                 

$$$$
untitled-dbase-172264_1
  -OEChem-08222312023D

 36 39  0     1  0  0  0  0  0999 V2000
   -7.8261    2.4012  -10.0597 C   0  0  0  0  0  0  0  0  0  0  0  0
   -8.2126    3.6237   -9.5150 C   0  0  0  0  0  0  0  0  0  0  0  0
   -7.6895    2.2641  -11.4380 C   0  0  0  0  0  0  0  0  0  0  0  0
   -8.9804    6.9272  -12.0061 C   0  0  0  0  0  0  0  0  0  0  0  0
   -9.1135    7.0514  -10.6263 C   0  0  0  0  0  0  0  0  0  0  0  0
   -8.4681    4.7267  -10.3436 C   0  0  0  0  0  0  0  0  0  0  0  0
   -8.3297    4.5939  -11.7482 C   0  0  0  0  0  0  0  0  0  0  0  0
   -7.9399    3.3561  -12.2787 C   0  0  0  0  0  0  0  0  0  0  0  0
   -8.5896    5.7035  -12.5644 C   0  0  0  0  0  0  0  0  0  0  0  0
   -8.8592    5.9593   -9.7996 C   0  0  0  0  0  0  0  0  0  0  0  0
   -7.7889    3.1938  -13.7419 C   0  0  0  0  0  0  0  0  0  0  0  0
   -8.4507    5.5884  -14.0329 C   0  0  0  0  0  0  0  0  0  0  0  0
   -7.6763    5.3609  -18.6181 C   0  0  0  0  0  0  0  0  0  0  0  0
   -6.6828    5.1606  -16.3228 C   0  0  0  0  0  0  0  0  0  0  0  0
   -8.8069    4.4500  -18.2028 C   0  0  0  0  0  0  0  0  0  0  0  0
   -9.0839    4.5516  -16.7139 C   0  0  0  0  0  0  0  0  0  0  0  0
   -7.8161    4.2250  -15.9412 C   0  0  2  0  0  0  0  0  0  0  0  0
   -6.7209    5.6178  -17.6396 N   0  0  0  0  0  0  0  0  0  0  0  0
   -8.0258    4.3396  -14.5225 N   0  0  0  0  0  0  0  0  0  0  0  0
   -7.4789    2.0924  -14.1909 O   0  0  0  0  0  0  0  0  0  0  0  0
   -8.7112    6.5601  -14.7393 O   0  0  0  0  0  0  0  0  0  0  0  0
   -7.5921    5.7970  -19.7660 O   0  0  0  0  0  0  0  0  0  0  0  0
   -5.7586    5.4356  -15.5576 O   0  0  0  0  0  0  0  0  0  0  0  0
   -9.0042    6.1313   -8.4523 O   0  0  0  0  0  0  0  0  0  0  0  0
   -7.6312    1.5543   -9.4080 H   0  0  0  0  0  0  0  0  0  0  0  0
   -8.3098    3.6952   -8.4339 H   0  0  0  0  0  0  0  0  0  0  0  0
   -7.3869    1.2997  -11.8368 H   0  0  0  0  0  0  0  0  0  0  0  0
   -9.1841    7.7942  -12.6286 H   0  0  0  0  0  0  0  0  0  0  0  0
   -9.4170    8.0042  -10.2006 H   0  0  0  0  0  0  0  0  0  0  0  0
   -9.7044    4.7320  -18.7639 H   0  0  0  0  0  0  0  0  0  0  0  0
   -8.5377    3.4250  -18.4812 H   0  0  0  0  0  0  0  0  0  0  0  0
   -9.4262    5.5675  -16.4761 H   0  0  0  0  0  0  0  0  0  0  0  0
   -9.8884    3.8587  -16.4418 H   0  0  0  0  0  0  0  0  0  0  0  0
   -7.4907    3.1981  -16.1505 H   0  0  0  0  0  0  0  0  0  0  0  0
   -5.9498    6.2170  -17.9216 H   0  0  0  0  0  0  0  0  0  0  0  0
   -9.2784    7.0408   -8.2618 H   0  0  0  0  0  0  0  0  0  0  0  0
  1  2  1  0  0  0  0
  1  3  2  0  0  0  0
  2  6  2  0  0  0  0
  3  8  1  0  0  0  0
  4  5  1  0  0  0  0
  4  9  2  0  0  0  0
  5 10  2  0  0  0  0
  6  7  1  0  0  0  0
  6 10  1  0  0  0  0
  7  8  2  0  0  0  0
  7  9  1  0  0  0  0
  8 11  1  0  0  0  0
  9 12  1  0  0  0  0
 10 24  1  0  0  0  0
 11 19  1  0  0  0  0
 11 20  2  0  0  0  0
 12 19  1  0  0  0  0
 12 21  2  0  0  0  0
 13 15  1  0  0  0  0
 13 18  1  0  0  0  0
 13 22  2  0  0  0  0
 14 17  1  0  0  0  0
 14 18  1  0  0  0  0
 14 23  2  0  0  0  0
 15 16  1  0  0  0  0
 16 17  1  0  0  0  0
 17 19  1  0  0  0  0
  1 25  1  0  0  0  0
  2 26  1  0  0  0  0
  3 27  1  0  0  0  0
  4 28  1  0  0  0  0
  5 29  1  0  0  0  0
 15 30  1  0  0  0  0
 15 31  1  0  0  0  0
 16 32  1  0  0  0  0
 16 33  1  0  0  0  0
 17 34  1  0  0  0  0
 18 35  1  0  0  0  0
 24 36  1  0  0  0  0
M  END
> <id>
EN300-43346091

> <smiles>
OC=1C=CC=2C(=O)N(C3CCC(=O)NC3=O)C(=O)C4=CC=CC1C42

> <IUPAC Name>
3-(2,6-dioxopiperidin-3-yl)-10-hydroxy-3-azatricyclo[7.3.1.0,5,13]trideca-1(13),5,7,9,11-pentaene-2,4-dione

> <URL>
https://www.enaminestore.com/catalog/EN300-43346091

> <ROCS_ShapeQuery>
_x0404_0B

> <ROCS_TanimotoCombo>
0.441 

> <ROCS_ShapeTanimoto>
0.350 

> <ROCS_ColorTanimoto>
0.091 

> <ROCS_RefTversky>
0.315 

> <ROCS_RefColorTversky>
0.100 

> <ROCS_RefTverskyCombo>
0.415 

> <ROCS_FitTversky>
1.467 

> <ROCS_FitColorTversky>
0.509 

> <ROCS_FitTverskyCombo>
1.976 

> <ROCS_ColorScore>
-7.255

> <ROCS_Overlap>
2102.946

> <ROCS_Rank>
198                 

$$$$
untitled-dbase-4555_1858
  -OEChem-08222312023D

 43 44  0     1  0  0  0  0  0999 V2000
   -9.2215    4.3819  -15.8668 C   0  0  0  0  0  0  0  0  0  0  0  0
   -9.6463    4.5459  -17.1852 C   0  0  0  0  0  0  0  0  0  0  0  0
   -7.0698    5.3170  -16.4438 C   0  0  0  0  0  0  0  0  0  0  0  0
   -7.9332    4.7675  -15.4961 C   0  0  0  0  0  0  0  0  0  0  0  0
   -8.7829    5.0953  -18.1330 C   0  0  0  0  0  0  0  0  0  0  0  0
   -7.4946    5.4809  -17.7623 C   0  0  0  0  0  0  0  0  0  0  0  0
   -8.8610    4.5747   -9.9320 C   0  0  0  0  0  0  0  0  0  0  0  0
   -7.7218    5.8492  -13.1992 C   0  0  0  0  0  0  0  0  0  0  0  0
   -8.8246    5.6607  -12.1614 C   0  0  0  0  0  0  0  0  0  0  0  0
   -7.9720    3.3208  -11.9123 C   0  0  0  0  0  0  0  0  0  0  0  0
   -7.4686    4.5897  -14.0564 C   0  0  1  0  0  0  0  0  0  0  0  0
   -8.0875    3.3201  -13.4345 C   0  0  1  0  0  0  0  0  0  0  0  0
  -10.7031    4.2296   -7.7704 C   0  0  0  0  0  0  0  0  0  0  0  0
   -9.8334    1.8763   -7.6477 C   0  0  0  0  0  0  0  0  0  0  0  0
   -8.2813    3.8065   -7.2313 C   0  0  0  0  0  0  0  0  0  0  0  0
   -9.4995    3.3205   -8.0151 C   0  0  0  0  0  0  0  0  0  0  0  0
   -8.5616    4.5109  -11.2968 N   0  0  0  0  0  0  0  0  0  0  0  0
   -8.8359    5.6057   -9.2628 O   0  0  0  0  0  0  0  0  0  0  0  0
   -7.4305    2.1611  -13.9471 O   0  0  0  0  0  0  0  0  0  0  0  0
   -9.1839    3.3484   -9.4118 O   0  0  0  0  0  0  0  0  0  0  0  0
   -9.1909    5.2517  -19.3990 F   0  0  0  0  0  0  0  0  0  0  0  0
   -6.6659    6.0097  -18.6718 F   0  0  0  0  0  0  0  0  0  0  0  0
   -9.9008    3.9526  -15.1351 H   0  0  0  0  0  0  0  0  0  0  0  0
  -10.6493    4.2461  -17.4744 H   0  0  0  0  0  0  0  0  0  0  0  0
   -6.0648    5.6217  -16.1644 H   0  0  0  0  0  0  0  0  0  0  0  0
   -7.9857    6.7024  -13.8514 H   0  0  0  0  0  0  0  0  0  0  0  0
   -6.7882    6.1463  -12.6891 H   0  0  0  0  0  0  0  0  0  0  0  0
   -8.8965    6.5460  -11.5131 H   0  0  0  0  0  0  0  0  0  0  0  0
   -9.7943    5.5530  -12.6654 H   0  0  0  0  0  0  0  0  0  0  0  0
   -8.4126    2.3947  -11.5090 H   0  0  0  0  0  0  0  0  0  0  0  0
   -6.9113    3.2876  -11.6055 H   0  0  0  0  0  0  0  0  0  0  0  0
   -6.3555    4.4227  -14.1320 H   0  0  0  0  0  0  0  0  0  0  0  0
   -9.1579    3.2424  -13.7172 H   0  0  0  0  0  0  0  0  0  0  0  0
  -10.4675    5.2671   -8.0330 H   0  0  0  0  0  0  0  0  0  0  0  0
  -11.5735    3.9123   -8.3539 H   0  0  0  0  0  0  0  0  0  0  0  0
  -10.9803    4.2344   -6.7101 H   0  0  0  0  0  0  0  0  0  0  0  0
   -8.9727    1.2205   -7.8217 H   0  0  0  0  0  0  0  0  0  0  0  0
  -10.6460    1.4919   -8.2747 H   0  0  0  0  0  0  0  0  0  0  0  0
  -10.1322    1.7851   -6.5984 H   0  0  0  0  0  0  0  0  0  0  0  0
   -7.4179    3.1546   -7.4066 H   0  0  0  0  0  0  0  0  0  0  0  0
   -8.0046    4.8288   -7.5090 H   0  0  0  0  0  0  0  0  0  0  0  0
   -8.4755    3.7791   -6.1529 H   0  0  0  0  0  0  0  0  0  0  0  0
   -7.5251    2.1965  -14.9109 H   0  0  0  0  0  0  0  0  0  0  0  0
  1  2  1  0  0  0  0
  1  4  2  0  0  0  0
  2  5  2  0  0  0  0
  3  4  1  0  0  0  0
  3  6  2  0  0  0  0
  4 11  1  0  0  0  0
  5  6  1  0  0  0  0
  5 21  1  0  0  0  0
  6 22  1  0  0  0  0
  7 17  1  0  0  0  0
  7 18  2  0  0  0  0
  7 20  1  0  0  0  0
  8  9  1  0  0  0  0
  8 11  1  0  0  0  0
  9 17  1  0  0  0  0
 10 12  1  0  0  0  0
 10 17  1  0  0  0  0
 11 12  1  0  0  0  0
 12 19  1  0  0  0  0
 13 16  1  0  0  0  0
 14 16  1  0  0  0  0
 15 16  1  0  0  0  0
 16 20  1  0  0  0  0
  1 23  1  0  0  0  0
  2 24  1  0  0  0  0
  3 25  1  0  0  0  0
  8 26  1  0  0  0  0
  8 27  1  0  0  0  0
  9 28  1  0  0  0  0
  9 29  1  0  0  0  0
 10 30  1  0  0  0  0
 10 31  1  0  0  0  0
 11 32  1  0  0  0  0
 12 33  1  0  0  0  0
 13 34  1  0  0  0  0
 13 35  1  0  0  0  0
 13 36  1  0  0  0  0
 14 37  1  0  0  0  0
 14 38  1  0  0  0  0
 14 39  1  0  0  0  0
 15 40  1  0  0  0  0
 15 41  1  0  0  0  0
 15 42  1  0  0  0  0
 19 43  1  0  0  0  0
M  END
> <id>
EN300-94554

> <smiles>
CC(C)(C)OC(=O)N1CCC(C(O)C1)C=2C=CC(F)=C(F)C2

> <MDLNUMBER>
MFCD20502198

> <IUPAC Name>
tert-butyl 4-(3,4-difluorophenyl)-3-hydroxypiperidine-1-carboxylate

> <CAS>
1354963-69-1

> <URL>
https://www.enaminestore.com/catalog/EN300-94554

> <ROCS_ShapeQuery>
_x0404_0B

> <ROCS_TanimotoCombo>
0.441 

> <ROCS_ShapeTanimoto>
0.351 

> <ROCS_ColorTanimoto>
0.090 

> <ROCS_RefTversky>
0.309 

> <ROCS_RefColorTversky>
0.094 

> <ROCS_RefTverskyCombo>
0.403 

> <ROCS_FitTversky>
1.621 

> <ROCS_FitColorTversky>
0.714 

> <ROCS_FitTverskyCombo>
2.335 

> <ROCS_ColorScore>
-6.768

> <ROCS_Overlap>
2063.293

> <ROCS_Rank>
199                 

$$$$
untitled-dbase-26389_47
  -OEChem-08222312023D

 39 40  0     0  0  0  0  0  0999 V2000
   -9.1943    6.0040  -12.1099 C   0  0  0  0  0  0  0  0  0  0  0  0
   -9.2152    6.1579  -10.7259 C   0  0  0  0  0  0  0  0  0  0  0  0
   -8.5130    3.7002  -11.8399 C   0  0  0  0  0  0  0  0  0  0  0  0
   -8.5304    3.8356  -10.4433 C   0  0  0  0  0  0  0  0  0  0  0  0
   -8.8490    4.7747  -12.6666 C   0  0  0  0  0  0  0  0  0  0  0  0
   -8.9051    5.0736   -9.9009 C   0  0  0  0  0  0  0  0  0  0  0  0
   -8.6044    5.5643  -15.0389 C   0  0  0  0  0  0  0  0  0  0  0  0
   -8.0898    2.6862   -9.5716 C   0  0  0  0  0  0  0  0  0  0  0  0
   -9.2985    3.1140   -7.5011 C   0  0  0  0  0  0  0  0  0  0  0  0
   -9.9006    4.4540   -7.9066 C   0  0  0  0  0  0  0  0  0  0  0  0
   -6.4297    5.4112  -16.8899 C   0  0  0  0  0  0  0  0  0  0  0  0
   -8.1593    4.7366  -18.5819 C   0  0  0  0  0  0  0  0  0  0  0  0
   -8.2848    6.9993  -17.4992 C   0  0  0  0  0  0  0  0  0  0  0  0
   -7.8945    5.5345  -17.3070 C   0  0  0  0  0  0  0  0  0  0  0  0
   -9.1196    2.2147   -8.6435 N   0  0  0  0  0  0  0  0  0  0  0  0
   -8.8526    4.6129  -14.0526 N   0  0  0  0  0  0  0  0  0  0  0  0
   -8.3312    6.7469  -14.8740 O   0  0  0  0  0  0  0  0  0  0  0  0
   -8.9348    5.2933   -8.5479 O   0  0  0  0  0  0  0  0  0  0  0  0
   -8.7118    4.9769  -16.2713 O   0  0  0  0  0  0  0  0  0  0  0  0
   -9.4504    6.8485  -12.7444 H   0  0  0  0  0  0  0  0  0  0  0  0
   -9.4617    7.1248  -10.2957 H   0  0  0  0  0  0  0  0  0  0  0  0
   -8.2451    2.7446  -12.2874 H   0  0  0  0  0  0  0  0  0  0  0  0
   -7.7110    1.8697  -10.1996 H   0  0  0  0  0  0  0  0  0  0  0  0
   -7.2359    3.0096   -8.9634 H   0  0  0  0  0  0  0  0  0  0  0  0
   -8.3084    3.2984   -7.0691 H   0  0  0  0  0  0  0  0  0  0  0  0
   -9.9079    2.6297   -6.7287 H   0  0  0  0  0  0  0  0  0  0  0  0
  -10.6844    4.2700   -8.6508 H   0  0  0  0  0  0  0  0  0  0  0  0
  -10.3919    4.9621   -7.0645 H   0  0  0  0  0  0  0  0  0  0  0  0
   -6.2356    5.9826  -15.9752 H   0  0  0  0  0  0  0  0  0  0  0  0
   -6.1466    4.3681  -16.7150 H   0  0  0  0  0  0  0  0  0  0  0  0
   -5.7679    5.8251  -17.6593 H   0  0  0  0  0  0  0  0  0  0  0  0
   -9.2091    4.8222  -18.8848 H   0  0  0  0  0  0  0  0  0  0  0  0
   -7.9708    3.6690  -18.4204 H   0  0  0  0  0  0  0  0  0  0  0  0
   -7.5304    5.0782  -19.4103 H   0  0  0  0  0  0  0  0  0  0  0  0
   -9.3354    7.0881  -17.7983 H   0  0  0  0  0  0  0  0  0  0  0  0
   -8.1362    7.5798  -16.5829 H   0  0  0  0  0  0  0  0  0  0  0  0
   -7.6951    7.4577  -18.3013 H   0  0  0  0  0  0  0  0  0  0  0  0
  -10.0061    2.1638   -9.1468 H   0  0  0  0  0  0  0  0  0  0  0  0
   -9.0662    3.6685  -14.3895 H   0  0  0  0  0  0  0  0  0  0  0  0
  1  2  1  0  0  0  0
  1  5  2  0  0  0  0
  2  6  2  0  0  0  0
  3  4  2  0  0  0  0
  3  5  1  0  0  0  0
  4  6  1  0  0  0  0
  4  8  1  0  0  0  0
  5 16  1  0  0  0  0
  6 18  1  0  0  0  0
  7 16  1  0  0  0  0
  7 17  2  0  0  0  0
  7 19  1  0  0  0  0
  8 15  1  0  0  0  0
  9 10  1  0  0  0  0
  9 15  1  0  0  0  0
 10 18  1  0  0  0  0
 11 14  1  0  0  0  0
 12 14  1  0  0  0  0
 13 14  1  0  0  0  0
 14 19  1  0  0  0  0
  1 20  1  0  0  0  0
  2 21  1  0  0  0  0
  3 22  1  0  0  0  0
  8 23  1  0  0  0  0
  8 24  1  0  0  0  0
  9 25  1  0  0  0  0
  9 26  1  0  0  0  0
 10 27  1  0  0  0  0
 10 28  1  0  0  0  0
 11 29  1  0  0  0  0
 11 30  1  0  0  0  0
 11 31  1  0  0  0  0
 12 32  1  0  0  0  0
 12 33  1  0  0  0  0
 12 34  1  0  0  0  0
 13 35  1  0  0  0  0
 13 36  1  0  0  0  0
 13 37  1  0  0  0  0
 15 38  1  0  0  0  0
 16 39  1  0  0  0  0
M  END
> <id>
EN300-374039

> <smiles>
CC(C)(C)OC(=O)NC=1C=CC=2OCCNCC2C1

> <MDLNUMBER>
MFCD30697172

> <IUPAC Name>
tert-butyl N-(2,3,4,5-tetrahydro-1,4-benzoxazepin-7-yl)carbamate

> <CAS>
2089258-42-2

> <Purity>
95

> <URL>
https://www.enaminestore.com/catalog/EN300-374039

> <ROCS_ShapeQuery>
_x0404_0B

> <ROCS_TanimotoCombo>
0.441 

> <ROCS_ShapeTanimoto>
0.335 

> <ROCS_ColorTanimoto>
0.106 

> <ROCS_RefTversky>
0.294 

> <ROCS_RefColorTversky>
0.111 

> <ROCS_RefTverskyCombo>
0.405 

> <ROCS_FitTversky>
1.703 

> <ROCS_FitColorTversky>
0.705 

> <ROCS_FitTverskyCombo>
2.408 

> <ROCS_ColorScore>
-8.021

> <ROCS_Overlap>
1962.188

> <ROCS_Rank>
200                 

$$$$
untitled-dbase-158018_6
  -OEChem-08222312023D

 51 54  0     1  0  0  0  0  0999 V2000
   -9.5156    3.2778  -18.2550 C   0  0  0  0  0  0  0  0  0  0  0  0
   -8.7586    5.6869  -18.1579 C   0  0  0  0  0  0  0  0  0  0  0  0
   -8.8425    3.0366  -17.1257 C   0  0  0  0  0  0  0  0  0  0  0  0
   -8.0862    5.4384  -17.0231 C   0  0  0  0  0  0  0  0  0  0  0  0
   -9.5057    4.6227  -18.8590 C   0  0  0  0  0  0  0  0  0  0  0  0
   -9.1151    3.9848   -9.3659 C   0  0  0  0  0  0  0  0  0  0  0  0
   -7.3814    6.5559  -16.2980 C   0  0  0  0  0  0  0  0  0  0  0  0
   -7.9354    6.6991  -14.8860 C   0  0  0  0  0  0  0  0  0  0  0  0
   -8.1442    6.6526  -11.8004 C   0  0  0  0  0  0  0  0  0  0  0  0
   -8.7514    6.2605  -10.4369 C   0  0  0  0  0  0  0  0  0  0  0  0
   -9.2387    3.1355  -12.6171 C   0  0  0  0  0  0  0  0  0  0  0  0
   -7.8875    5.3770  -14.0978 C   0  0  1  0  0  0  0  0  0  0  0  0
   -8.5936    5.5389  -12.7424 C   0  0  1  0  0  0  0  0  0  0  0  0
   -8.5865    4.2174  -14.8913 C   0  0  2  0  0  0  0  0  0  0  0  0
   -8.6919    2.9082  -14.0438 C   0  0  1  0  0  0  0  0  0  0  0  0
   -8.0187    4.0596  -16.3573 C   0  0  1  0  0  0  0  0  0  0  0  0
   -9.2827    4.8176  -10.6012 C   0  0  1  0  0  0  0  0  0  0  0  0
   -8.5368    4.2766  -11.8539 C   0  0  1  0  0  0  0  0  0  0  0  0
   -6.5550    3.5702  -16.4229 C   0  0  0  0  0  0  0  0  0  0  0  0
   -7.0921    3.8698  -11.4524 C   0  0  0  0  0  0  0  0  0  0  0  0
  -10.1023    4.8515  -19.9057 O   0  0  0  0  0  0  0  0  0  0  0  0
   -8.9514    2.7739   -9.3527 O   0  0  0  0  0  0  0  0  0  0  0  0
   -9.1724    4.7593   -8.2550 O   0  0  0  0  0  0  0  0  0  0  0  0
   -7.4726    2.1834  -13.9687 O   0  0  0  0  0  0  0  0  0  0  0  0
  -10.6913    4.8544  -10.8117 O   0  0  0  0  0  0  0  0  0  0  0  0
  -10.0716    2.4954  -18.7583 H   0  0  0  0  0  0  0  0  0  0  0  0
   -8.7934    6.6786  -18.5963 H   0  0  0  0  0  0  0  0  0  0  0  0
   -8.8653    2.0185  -16.7431 H   0  0  0  0  0  0  0  0  0  0  0  0
   -6.3042    6.3581  -16.2638 H   0  0  0  0  0  0  0  0  0  0  0  0
   -7.4994    7.5113  -16.8234 H   0  0  0  0  0  0  0  0  0  0  0  0
   -7.3593    7.4693  -14.3598 H   0  0  0  0  0  0  0  0  0  0  0  0
   -8.9703    7.0620  -14.9397 H   0  0  0  0  0  0  0  0  0  0  0  0
   -8.5053    7.6344  -12.1232 H   0  0  0  0  0  0  0  0  0  0  0  0
   -7.0518    6.7074  -11.7336 H   0  0  0  0  0  0  0  0  0  0  0  0
   -7.9799    6.3338   -9.6618 H   0  0  0  0  0  0  0  0  0  0  0  0
   -9.5536    6.9590  -10.1725 H   0  0  0  0  0  0  0  0  0  0  0  0
  -10.3083    3.3586  -12.7159 H   0  0  0  0  0  0  0  0  0  0  0  0
   -9.1662    2.2080  -12.0356 H   0  0  0  0  0  0  0  0  0  0  0  0
   -6.8334    5.1279  -13.9383 H   0  0  0  0  0  0  0  0  0  0  0  0
   -9.6503    5.7516  -12.9756 H   0  0  0  0  0  0  0  0  0  0  0  0
   -9.6347    4.5419  -15.0144 H   0  0  0  0  0  0  0  0  0  0  0  0
   -9.4191    2.2255  -14.5419 H   0  0  0  0  0  0  0  0  0  0  0  0
   -5.9261    4.2700  -15.8866 H   0  0  0  0  0  0  0  0  0  0  0  0
   -6.2485    3.5166  -17.4601 H   0  0  0  0  0  0  0  0  0  0  0  0
   -6.4914    2.5901  -15.9666 H   0  0  0  0  0  0  0  0  0  0  0  0
   -6.6380    4.6941  -10.9221 H   0  0  0  0  0  0  0  0  0  0  0  0
   -6.5355    3.6483  -12.3514 H   0  0  0  0  0  0  0  0  0  0  0  0
   -7.1450    2.9972  -10.8176 H   0  0  0  0  0  0  0  0  0  0  0  0
   -9.0666    4.2318   -7.4347 H   0  0  0  0  0  0  0  0  0  0  0  0
   -7.6760    1.3382  -13.5369 H   0  0  0  0  0  0  0  0  0  0  0  0
  -11.0792    5.2612  -10.0211 H   0  0  0  0  0  0  0  0  0  0  0  0
  1  3  2  0  0  0  0
  1  5  1  0  0  0  0
  2  4  2  0  0  0  0
  2  5  1  0  0  0  0
  3 16  1  0  0  0  0
  4  7  1  0  0  0  0
  4 16  1  0  0  0  0
  5 21  2  0  0  0  0
  6 17  1  0  0  0  0
  6 22  2  0  0  0  0
  6 23  1  0  0  0  0
  7  8  1  0  0  0  0
  8 12  1  6  0  0  0
  9 10  1  0  0  0  0
  9 13  1  1  0  0  0
 10 17  1  0  0  0  0
 11 15  1  0  0  0  0
 11 18  1  0  0  0  0
 12 13  1  0  0  0  0
 12 14  1  0  0  0  0
 13 18  1  0  0  0  0
 14 15  1  1  0  0  0
 14 16  1  0  0  0  0
 15 24  1  1  0  0  0
 16 19  1  1  0  0  0
 17 18  1  0  0  0  0
 17 25  1  6  0  0  0
 18 20  1  1  0  0  0
  1 26  1  0  0  0  0
  2 27  1  0  0  0  0
  3 28  1  0  0  0  0
  7 29  1  0  0  0  0
  7 30  1  0  0  0  0
  8 31  1  0  0  0  0
  8 32  1  0  0  0  0
  9 33  1  0  0  0  0
  9 34  1  0  0  0  0
 10 35  1  0  0  0  0
 10 36  1  0  0  0  0
 11 37  1  0  0  0  0
 11 38  1  0  0  0  0
 12 39  1  0  0  0  0
 13 40  1  0  0  0  0
 14 41  1  0  0  0  0
 15 42  1  0  0  0  0
 19 43  1  0  0  0  0
 19 44  1  0  0  0  0
 19 45  1  0  0  0  0
 20 46  1  0  0  0  0
 20 47  1  0  0  0  0
 20 48  1  0  0  0  0
 23 49  1  0  0  0  0
 24 50  1  0  0  0  0
 25 51  1  0  0  0  0
M  END
> <id>
EN300-20206581

> <smiles>
C[C@@]12C[C@H](O)[C@H]3[C@@H](CCC4=CC(=O)C=C[C@]34C)[C@@H]2CC[C@]1(O)C(=O)O

> <MDLNUMBER>
MFCD22683758

> <IUPAC Name>
(1R,3aS,3bS,9aR,9bS,10S,11aS)-1,10-dihydroxy-9a,11a-dimethyl-7-oxo-1H,2H,3H,3aH,3bH,4H,5H,7H,9aH,9bH,10H,11H,11aH-cyclopenta[a]phenanthrene-1-carboxylic acid

> <CAS>
37927-29-0

> <URL>
https://www.enaminestore.com/catalog/EN300-20206581

> <ROCS_ShapeQuery>
_x0404_0B

> <ROCS_TanimotoCombo>
0.441 

> <ROCS_ShapeTanimoto>
0.334 

> <ROCS_ColorTanimoto>
0.107 

> <ROCS_RefTversky>
0.303 

> <ROCS_RefColorTversky>
0.117 

> <ROCS_RefTverskyCombo>
0.421 

> <ROCS_FitTversky>
1.426 

> <ROCS_FitColorTversky>
0.559 

> <ROCS_FitTverskyCombo>
1.985 

> <ROCS_ColorScore>
-8.501

> <ROCS_Overlap>
2026.977

> <ROCS_Rank>
201                 

$$$$
untitled-dbase-139321_1106
  -OEChem-08222312023D

 49 51  0     0  0  0  0  0  0999 V2000
   -7.7355    5.5688  -18.3830 C   0  0  0  0  0  0  0  0  0  0  0  0
   -8.2363    4.6201  -19.2691 C   0  0  0  0  0  0  0  0  0  0  0  0
   -9.6389    3.7449  -17.5073 C   0  0  0  0  0  0  0  0  0  0  0  0
   -8.1928    5.5999  -17.0541 C   0  0  0  0  0  0  0  0  0  0  0  0
   -9.1547    4.6833  -16.5992 C   0  0  0  0  0  0  0  0  0  0  0  0
   -9.1891    3.7074  -18.8305 C   0  0  0  0  0  0  0  0  0  0  0  0
   -7.7329    6.5220  -16.1181 C   0  0  0  0  0  0  0  0  0  0  0  0
   -9.0756    5.6464  -14.5202 C   0  0  0  0  0  0  0  0  0  0  0  0
   -8.4223    5.2550   -8.9199 C   0  0  0  0  0  0  0  0  0  0  0  0
   -9.3748    4.3196  -12.3529 C   0  0  0  0  0  0  0  0  0  0  0  0
   -8.9876    6.8540  -12.3137 C   0  0  0  0  0  0  0  0  0  0  0  0
   -8.3238    4.4031  -11.2489 C   0  0  0  0  0  0  0  0  0  0  0  0
   -9.2062    6.7052  -10.8124 C   0  0  0  0  0  0  0  0  0  0  0  0
   -9.5828    5.6632  -13.0883 C   0  0  0  0  0  0  0  0  0  0  0  0
   -6.7090    7.5514  -16.4749 C   0  0  0  0  0  0  0  0  0  0  0  0
  -10.0405    2.9436   -8.4467 C   0  0  0  0  0  0  0  0  0  0  0  0
   -7.9252    1.8544   -7.6415 C   0  0  0  0  0  0  0  0  0  0  0  0
   -8.8293    3.8683   -6.4436 C   0  0  0  0  0  0  0  0  0  0  0  0
   -8.6772    3.1745   -7.7965 C   0  0  0  0  0  0  0  0  0  0  0  0
   -9.5989    4.7039  -15.3303 N   0  0  0  0  0  0  0  0  0  0  0  0
   -8.1560    6.5708  -14.8409 N   0  0  0  0  0  0  0  0  0  0  0  0
   -8.6420    5.4582  -10.2859 N   0  0  0  0  0  0  0  0  0  0  0  0
   -8.6614    6.0865   -8.0465 O   0  0  0  0  0  0  0  0  0  0  0  0
   -7.8992    4.0160   -8.6556 O   0  0  0  0  0  0  0  0  0  0  0  0
   -9.8774    2.4138  -20.0247 Br  0  0  0  0  0  0  0  0  0  0  0  0
   -6.9915    6.2734  -18.7453 H   0  0  0  0  0  0  0  0  0  0  0  0
   -7.8747    4.6063  -20.2937 H   0  0  0  0  0  0  0  0  0  0  0  0
  -10.3854    3.0259  -17.1723 H   0  0  0  0  0  0  0  0  0  0  0  0
   -9.0824    3.5345  -13.0751 H   0  0  0  0  0  0  0  0  0  0  0  0
  -10.3333    3.9810  -11.9203 H   0  0  0  0  0  0  0  0  0  0  0  0
   -9.4443    7.7918  -12.6594 H   0  0  0  0  0  0  0  0  0  0  0  0
   -7.9101    6.9415  -12.5185 H   0  0  0  0  0  0  0  0  0  0  0  0
   -8.2803    3.4562  -10.6909 H   0  0  0  0  0  0  0  0  0  0  0  0
   -7.3339    4.5529  -11.6973 H   0  0  0  0  0  0  0  0  0  0  0  0
   -8.7785    7.5726  -10.2856 H   0  0  0  0  0  0  0  0  0  0  0  0
  -10.2838    6.6965  -10.5788 H   0  0  0  0  0  0  0  0  0  0  0  0
  -10.6973    5.8414  -13.1716 H   0  0  0  0  0  0  0  0  0  0  0  0
   -7.1985    8.4619  -16.8378 H   0  0  0  0  0  0  0  0  0  0  0  0
   -6.0886    7.8080  -15.6081 H   0  0  0  0  0  0  0  0  0  0  0  0
   -6.0328    7.1816  -17.2549 H   0  0  0  0  0  0  0  0  0  0  0  0
  -10.5835    3.8888   -8.5597 H   0  0  0  0  0  0  0  0  0  0  0  0
   -9.9434    2.4783   -9.4330 H   0  0  0  0  0  0  0  0  0  0  0  0
  -10.6684    2.2994   -7.8205 H   0  0  0  0  0  0  0  0  0  0  0  0
   -6.9464    2.0153   -7.1754 H   0  0  0  0  0  0  0  0  0  0  0  0
   -7.7303    1.3991   -8.6192 H   0  0  0  0  0  0  0  0  0  0  0  0
   -8.4863    1.1390   -7.0316 H   0  0  0  0  0  0  0  0  0  0  0  0
   -7.8515    4.0341   -5.9770 H   0  0  0  0  0  0  0  0  0  0  0  0
   -9.3343    4.8349   -6.5406 H   0  0  0  0  0  0  0  0  0  0  0  0
   -9.4021    3.2444   -5.7480 H   0  0  0  0  0  0  0  0  0  0  0  0
  1  2  1  0  0  0  0
  1  4  2  0  0  0  0
  2  6  2  0  0  0  0
  3  5  2  0  0  0  0
  3  6  1  0  0  0  0
  4  5  1  0  0  0  0
  4  7  1  0  0  0  0
  5 20  1  0  0  0  0
  6 25  1  0  0  0  0
  7 15  1  0  0  0  0
  7 21  2  0  0  0  0
  8 14  1  0  0  0  0
  8 20  2  0  0  0  0
  8 21  1  0  0  0  0
  9 22  1  0  0  0  0
  9 23  2  0  0  0  0
  9 24  1  0  0  0  0
 10 12  1  0  0  0  0
 10 14  1  0  0  0  0
 11 13  1  0  0  0  0
 11 14  1  0  0  0  0
 12 22  1  0  0  0  0
 13 22  1  0  0  0  0
 16 19  1  0  0  0  0
 17 19  1  0  0  0  0
 18 19  1  0  0  0  0
 19 24  1  0  0  0  0
  1 26  1  0  0  0  0
  2 27  1  0  0  0  0
  3 28  1  0  0  0  0
 10 29  1  0  0  0  0
 10 30  1  0  0  0  0
 11 31  1  0  0  0  0
 11 32  1  0  0  0  0
 12 33  1  0  0  0  0
 12 34  1  0  0  0  0
 13 35  1  0  0  0  0
 13 36  1  0  0  0  0
 14 37  1  0  0  0  0
 15 38  1  0  0  0  0
 15 39  1  0  0  0  0
 15 40  1  0  0  0  0
 16 41  1  0  0  0  0
 16 42  1  0  0  0  0
 16 43  1  0  0  0  0
 17 44  1  0  0  0  0
 17 45  1  0  0  0  0
 17 46  1  0  0  0  0
 18 47  1  0  0  0  0
 18 48  1  0  0  0  0
 18 49  1  0  0  0  0
M  END
> <id>
EN300-27103924

> <smiles>
CC=1N=C(N=C2C=C(Br)C=CC12)C3CCN(CC3)C(=O)OC(C)(C)C

> <MDLNUMBER>
MFCD32859922

> <IUPAC Name>
tert-butyl 4-(7-bromo-4-methylquinazolin-2-yl)piperidine-1-carboxylate

> <CAS>
2503205-68-1

> <Purity>
95

> <URL>
https://www.enaminestore.com/catalog/EN300-27103924

> <ROCS_ShapeQuery>
_x0404_0B

> <ROCS_TanimotoCombo>
0.441 

> <ROCS_ShapeTanimoto>
0.372 

> <ROCS_ColorTanimoto>
0.069 

> <ROCS_RefTversky>
0.328 

> <ROCS_RefColorTversky>
0.075 

> <ROCS_RefTverskyCombo>
0.403 

> <ROCS_FitTversky>
1.553 

> <ROCS_FitColorTversky>
0.476 

> <ROCS_FitTverskyCombo>
2.029 

> <ROCS_ColorScore>
-5.425

> <ROCS_Overlap>
2192.696

> <ROCS_Rank>
202                 

$$$$
untitled-dbase-148337_23
  -OEChem-08222312023D

 41 43  0     0  0  0  0  0  0999 V2000
   -9.4419    3.8341   -7.3440 C   0  0  0  0  0  0  0  0  0  0  0  0
   -9.1696    2.4980   -7.6311 C   0  0  0  0  0  0  0  0  0  0  0  0
   -9.3107    4.8042   -8.3380 C   0  0  0  0  0  0  0  0  0  0  0  0
   -8.7650    2.1263   -8.9135 C   0  0  0  0  0  0  0  0  0  0  0  0
   -8.2070    6.0370  -13.0278 C   0  0  0  0  0  0  0  0  0  0  0  0
   -7.8024    5.6652  -14.3103 C   0  0  0  0  0  0  0  0  0  0  0  0
   -8.9050    4.4355   -9.6263 C   0  0  0  0  0  0  0  0  0  0  0  0
   -8.6322    3.0966   -9.9140 C   0  0  0  0  0  0  0  0  0  0  0  0
   -8.3400    5.0667  -12.0273 C   0  0  0  0  0  0  0  0  0  0  0  0
   -8.0672    3.7277  -12.3151 C   0  0  0  0  0  0  0  0  0  0  0  0
   -7.5302    4.3291  -14.5974 C   0  0  0  0  0  0  0  0  0  0  0  0
   -7.6615    3.3590  -13.6034 C   0  0  0  0  0  0  0  0  0  0  0  0
   -8.7689    5.4695  -10.6724 C   0  0  0  0  0  0  0  0  0  0  0  0
   -8.2033    2.6937  -11.2690 C   0  0  0  0  0  0  0  0  0  0  0  0
   -7.1099    3.9879  -15.9519 C   0  0  0  0  0  0  0  0  0  0  0  0
   -9.1444    4.2707  -17.6001 C   0  0  0  0  0  0  0  0  0  0  0  0
   -8.2745    6.5504  -18.1962 C   0  0  0  0  0  0  0  0  0  0  0  0
   -7.1206    4.5014  -19.0785 C   0  0  0  0  0  0  0  0  0  0  0  0
   -7.8976    5.0992  -17.9064 C   0  0  0  0  0  0  0  0  0  0  0  0
   -7.3714    2.0166  -13.9499 N   0  0  0  0  0  0  0  0  0  0  0  0
   -9.0078    6.6440  -10.4200 O   0  0  0  0  0  0  0  0  0  0  0  0
   -7.9747    1.5095  -11.4808 O   0  0  0  0  0  0  0  0  0  0  0  0
   -6.8406    2.8424  -16.3292 O   0  0  0  0  0  0  0  0  0  0  0  0
   -7.0530    5.0955  -16.7504 O   0  0  0  0  0  0  0  0  0  0  0  0
   -9.7571    4.1215   -6.3452 H   0  0  0  0  0  0  0  0  0  0  0  0
   -9.2744    1.7452   -6.8553 H   0  0  0  0  0  0  0  0  0  0  0  0
   -9.5286    5.8393   -8.0883 H   0  0  0  0  0  0  0  0  0  0  0  0
   -8.5592    1.0774   -9.1089 H   0  0  0  0  0  0  0  0  0  0  0  0
   -8.4139    7.0852  -12.8293 H   0  0  0  0  0  0  0  0  0  0  0  0
   -7.7027    6.4288  -15.0777 H   0  0  0  0  0  0  0  0  0  0  0  0
   -8.8781    3.2283  -17.3916 H   0  0  0  0  0  0  0  0  0  0  0  0
   -9.6918    4.6686  -16.7395 H   0  0  0  0  0  0  0  0  0  0  0  0
   -9.8217    4.2502  -18.4617 H   0  0  0  0  0  0  0  0  0  0  0  0
   -7.3829    7.1485  -18.4165 H   0  0  0  0  0  0  0  0  0  0  0  0
   -8.7482    7.0126  -17.3225 H   0  0  0  0  0  0  0  0  0  0  0  0
   -8.9621    6.6275  -19.0447 H   0  0  0  0  0  0  0  0  0  0  0  0
   -6.2262    5.0955  -19.2984 H   0  0  0  0  0  0  0  0  0  0  0  0
   -6.8098    3.4719  -18.8732 H   0  0  0  0  0  0  0  0  0  0  0  0
   -7.7273    4.5066  -19.9913 H   0  0  0  0  0  0  0  0  0  0  0  0
   -7.1323    1.8036  -14.8941 H   0  0  0  0  0  0  0  0  0  0  0  0
   -7.5044    1.3032  -13.2661 H   0  0  0  0  0  0  0  0  0  0  0  0
  1  2  2  0  0  0  0
  1  3  1  0  0  0  0
  2  4  1  0  0  0  0
  3  7  2  0  0  0  0
  4  8  2  0  0  0  0
  5  6  1  0  0  0  0
  5  9  2  0  0  0  0
  6 11  2  0  0  0  0
  7  8  1  0  0  0  0
  7 13  1  0  0  0  0
  8 14  1  0  0  0  0
  9 10  1  0  0  0  0
  9 13  1  0  0  0  0
 10 12  2  0  0  0  0
 10 14  1  0  0  0  0
 11 12  1  0  0  0  0
 11 15  1  0  0  0  0
 12 20  1  0  0  0  0
 13 21  2  0  0  0  0
 14 22  2  0  0  0  0
 15 23  2  0  0  0  0
 15 24  1  0  0  0  0
 16 19  1  0  0  0  0
 17 19  1  0  0  0  0
 18 19  1  0  0  0  0
 19 24  1  0  0  0  0
  1 25  1  0  0  0  0
  2 26  1  0  0  0  0
  3 27  1  0  0  0  0
  4 28  1  0  0  0  0
  5 29  1  0  0  0  0
  6 30  1  0  0  0  0
 16 31  1  0  0  0  0
 16 32  1  0  0  0  0
 16 33  1  0  0  0  0
 17 34  1  0  0  0  0
 17 35  1  0  0  0  0
 17 36  1  0  0  0  0
 18 37  1  0  0  0  0
 18 38  1  0  0  0  0
 18 39  1  0  0  0  0
 20 40  1  0  0  0  0
 20 41  1  0  0  0  0
M  END
> <id>
EN300-27726072

> <smiles>
CC(C)(C)OC(=O)C=1C=CC=2C(=O)C=3C=CC=CC3C(=O)C2C1N

> <IUPAC Name>
tert-butyl 1-amino-9,10-dioxo-9,10-dihydroanthracene-2-carboxylate

> <CAS>
2639417-31-3

> <URL>
https://www.enaminestore.com/catalog/EN300-27726072

> <ROCS_ShapeQuery>
_x0404_0B

> <ROCS_TanimotoCombo>
0.441 

> <ROCS_ShapeTanimoto>
0.340 

> <ROCS_ColorTanimoto>
0.101 

> <ROCS_RefTversky>
0.307 

> <ROCS_RefColorTversky>
0.108 

> <ROCS_RefTverskyCombo>
0.415 

> <ROCS_FitTversky>
1.456 

> <ROCS_FitColorTversky>
0.631 

> <ROCS_FitTverskyCombo>
2.087 

> <ROCS_ColorScore>
-7.791

> <ROCS_Overlap>
2050.560

> <ROCS_Rank>
203                 

$$$$
untitled-dbase-55474_0
  -OEChem-08222312023D

 31 33  0     0  0  0  0  0  0999 V2000
   -9.5298    4.8237  -15.2704 C   0  0  0  0  0  0  0  0  0  0  0  0
   -9.4231    4.7004  -16.6557 C   0  0  0  0  0  0  0  0  0  0  0  0
   -7.3575    5.8786  -15.1969 C   0  0  0  0  0  0  0  0  0  0  0  0
   -9.0459    3.1270  -10.4032 C   0  0  0  0  0  0  0  0  0  0  0  0
   -9.1462    4.2592   -8.2685 C   0  0  0  0  0  0  0  0  0  0  0  0
   -8.4970    5.4129  -14.5410 C   0  0  0  0  0  0  0  0  0  0  0  0
   -8.8671    5.5332  -10.2976 C   0  0  0  0  0  0  0  0  0  0  0  0
   -8.8928    4.3566  -11.0443 C   0  0  0  0  0  0  0  0  0  0  0  0
   -8.2835    5.1661  -17.3116 C   0  0  0  0  0  0  0  0  0  0  0  0
   -7.2507    5.7552  -16.5822 C   0  0  0  0  0  0  0  0  0  0  0  0
   -9.1723    3.0800   -9.0146 C   0  0  0  0  0  0  0  0  0  0  0  0
   -8.9936    5.4904   -8.9072 C   0  0  0  0  0  0  0  0  0  0  0  0
   -8.5778    6.7434  -12.4689 C   0  0  0  0  0  0  0  0  0  0  0  0
   -8.6115    5.5459  -13.0748 C   0  0  0  0  0  0  0  0  0  0  0  0
   -8.7058    6.8156  -10.9995 C   0  0  0  0  0  0  0  0  0  0  0  0
   -8.6786    7.8861  -10.4082 O   0  0  0  0  0  0  0  0  0  0  0  0
   -8.7734    4.3395  -12.4109 O   0  0  0  0  0  0  0  0  0  0  0  0
   -8.1917    5.0395  -18.6648 O   0  0  0  0  0  0  0  0  0  0  0  0
   -6.1329    6.2127  -17.2124 O   0  0  0  0  0  0  0  0  0  0  0  0
   -9.3217    1.8818   -8.3859 O   0  0  0  0  0  0  0  0  0  0  0  0
   -8.9742    6.6114   -8.1338 O   0  0  0  0  0  0  0  0  0  0  0  0
  -10.4245    4.4571  -14.7731 H   0  0  0  0  0  0  0  0  0  0  0  0
  -10.2311    4.2402  -17.2179 H   0  0  0  0  0  0  0  0  0  0  0  0
   -6.5475    6.3398  -14.6360 H   0  0  0  0  0  0  0  0  0  0  0  0
   -9.0665    2.2072  -10.9821 H   0  0  0  0  0  0  0  0  0  0  0  0
   -9.2469    4.2164   -7.1865 H   0  0  0  0  0  0  0  0  0  0  0  0
   -8.4542    7.6730  -13.0137 H   0  0  0  0  0  0  0  0  0  0  0  0
   -8.9883    4.6117  -19.0163 H   0  0  0  0  0  0  0  0  0  0  0  0
   -6.2005    6.0597  -18.1679 H   0  0  0  0  0  0  0  0  0  0  0  0
   -9.3962    2.0122   -7.4272 H   0  0  0  0  0  0  0  0  0  0  0  0
   -8.8637    7.3997   -8.6885 H   0  0  0  0  0  0  0  0  0  0  0  0
  1  2  1  0  0  0  0
  1  6  2  0  0  0  0
  2  9  2  0  0  0  0
  3  6  1  0  0  0  0
  3 10  2  0  0  0  0
  4  8  2  0  0  0  0
  4 11  1  0  0  0  0
  5 11  2  0  0  0  0
  5 12  1  0  0  0  0
  6 14  1  0  0  0  0
  7  8  1  0  0  0  0
  7 12  2  0  0  0  0
  7 15  1  0  0  0  0
  8 17  1  0  0  0  0
  9 10  1  0  0  0  0
  9 18  1  0  0  0  0
 10 19  1  0  0  0  0
 11 20  1  0  0  0  0
 12 21  1  0  0  0  0
 13 14  2  0  0  0  0
 13 15  1  0  0  0  0
 14 17  1  0  0  0  0
 15 16  2  0  0  0  0
  1 22  1  0  0  0  0
  2 23  1  0  0  0  0
  3 24  1  0  0  0  0
  4 25  1  0  0  0  0
  5 26  1  0  0  0  0
 13 27  1  0  0  0  0
 18 28  1  0  0  0  0
 19 29  1  0  0  0  0
 20 30  1  0  0  0  0
 21 31  1  0  0  0  0
M  END
> <id>
EN300-1655807

> <smiles>
O.OC=1C=C(O)C=2C(=O)C=C(OC2C1)C=3C=CC(O)=C(O)C3

> <MDLNUMBER>
MFCD10566022

> <IUPAC Name>
2-(3,4-dihydroxyphenyl)-5,7-dihydroxy-4H-chromen-4-one hydrate

> <CAS>
6113-16-2

> <URL>
https://www.enaminestore.com/catalog/EN300-1655807

> <Saltdate>
O

> <ROCS_ShapeQuery>
_x0404_0B

> <ROCS_TanimotoCombo>
0.441 

> <ROCS_ShapeTanimoto>
0.369 

> <ROCS_ColorTanimoto>
0.072 

> <ROCS_RefTversky>
0.321 

> <ROCS_RefColorTversky>
0.083 

> <ROCS_RefTverskyCombo>
0.403 

> <ROCS_FitTversky>
1.674 

> <ROCS_FitColorTversky>
0.371 

> <ROCS_FitTverskyCombo>
2.045 

> <ROCS_ColorScore>
-5.979

> <ROCS_Overlap>
2141.860

> <ROCS_Rank>
204                 

$$$$
untitled-dbase-54958_0
  -OEChem-08222312023D

 31 33  0     0  0  0  0  0  0999 V2000
   -9.5298    4.8237  -15.2704 C   0  0  0  0  0  0  0  0  0  0  0  0
   -9.4231    4.7004  -16.6557 C   0  0  0  0  0  0  0  0  0  0  0  0
   -7.3575    5.8786  -15.1969 C   0  0  0  0  0  0  0  0  0  0  0  0
   -9.0459    3.1270  -10.4032 C   0  0  0  0  0  0  0  0  0  0  0  0
   -9.1462    4.2592   -8.2685 C   0  0  0  0  0  0  0  0  0  0  0  0
   -8.4970    5.4129  -14.5410 C   0  0  0  0  0  0  0  0  0  0  0  0
   -8.8671    5.5332  -10.2976 C   0  0  0  0  0  0  0  0  0  0  0  0
   -8.8928    4.3566  -11.0443 C   0  0  0  0  0  0  0  0  0  0  0  0
   -8.2835    5.1661  -17.3116 C   0  0  0  0  0  0  0  0  0  0  0  0
   -7.2507    5.7552  -16.5822 C   0  0  0  0  0  0  0  0  0  0  0  0
   -9.1723    3.0800   -9.0146 C   0  0  0  0  0  0  0  0  0  0  0  0
   -8.9936    5.4904   -8.9072 C   0  0  0  0  0  0  0  0  0  0  0  0
   -8.5778    6.7434  -12.4689 C   0  0  0  0  0  0  0  0  0  0  0  0
   -8.6115    5.5459  -13.0748 C   0  0  0  0  0  0  0  0  0  0  0  0
   -8.7058    6.8156  -10.9995 C   0  0  0  0  0  0  0  0  0  0  0  0
   -8.6786    7.8861  -10.4082 O   0  0  0  0  0  0  0  0  0  0  0  0
   -8.7734    4.3395  -12.4109 O   0  0  0  0  0  0  0  0  0  0  0  0
   -8.1917    5.0395  -18.6648 O   0  0  0  0  0  0  0  0  0  0  0  0
   -6.1329    6.2127  -17.2124 O   0  0  0  0  0  0  0  0  0  0  0  0
   -9.3217    1.8818   -8.3859 O   0  0  0  0  0  0  0  0  0  0  0  0
   -8.9742    6.6114   -8.1338 O   0  0  0  0  0  0  0  0  0  0  0  0
  -10.4245    4.4571  -14.7731 H   0  0  0  0  0  0  0  0  0  0  0  0
  -10.2311    4.2402  -17.2179 H   0  0  0  0  0  0  0  0  0  0  0  0
   -6.5475    6.3398  -14.6360 H   0  0  0  0  0  0  0  0  0  0  0  0
   -9.0665    2.2072  -10.9821 H   0  0  0  0  0  0  0  0  0  0  0  0
   -9.2469    4.2164   -7.1865 H   0  0  0  0  0  0  0  0  0  0  0  0
   -8.4542    7.6730  -13.0137 H   0  0  0  0  0  0  0  0  0  0  0  0
   -8.9883    4.6117  -19.0163 H   0  0  0  0  0  0  0  0  0  0  0  0
   -6.2005    6.0597  -18.1679 H   0  0  0  0  0  0  0  0  0  0  0  0
   -9.3962    2.0122   -7.4272 H   0  0  0  0  0  0  0  0  0  0  0  0
   -8.8637    7.3997   -8.6885 H   0  0  0  0  0  0  0  0  0  0  0  0
  1  2  1  0  0  0  0
  1  6  2  0  0  0  0
  2  9  2  0  0  0  0
  3  6  1  0  0  0  0
  3 10  2  0  0  0  0
  4  8  2  0  0  0  0
  4 11  1  0  0  0  0
  5 11  2  0  0  0  0
  5 12  1  0  0  0  0
  6 14  1  0  0  0  0
  7  8  1  0  0  0  0
  7 12  2  0  0  0  0
  7 15  1  0  0  0  0
  8 17  1  0  0  0  0
  9 10  1  0  0  0  0
  9 18  1  0  0  0  0
 10 19  1  0  0  0  0
 11 20  1  0  0  0  0
 12 21  1  0  0  0  0
 13 14  2  0  0  0  0
 13 15  1  0  0  0  0
 14 17  1  0  0  0  0
 15 16  2  0  0  0  0
  1 22  1  0  0  0  0
  2 23  1  0  0  0  0
  3 24  1  0  0  0  0
  4 25  1  0  0  0  0
  5 26  1  0  0  0  0
 13 27  1  0  0  0  0
 18 28  1  0  0  0  0
 19 29  1  0  0  0  0
 20 30  1  0  0  0  0
 21 31  1  0  0  0  0
M  END
> <id>
EN300-1659559

> <smiles>
OC=1C=C(O)C=2C(=O)C=C(OC2C1)C=3C=CC(O)=C(O)C3

> <MDLNUMBER>
MFCD00017309

> <IUPAC Name>
2-(3,4-dihydroxyphenyl)-5,7-dihydroxy-4H-chromen-4-one

> <CAS>
491-70-3

> <Purity>
95

> <URL>
https://www.enaminestore.com/catalog/EN300-1659559

> <ROCS_ShapeQuery>
_x0404_0B

> <ROCS_TanimotoCombo>
0.441 

> <ROCS_ShapeTanimoto>
0.369 

> <ROCS_ColorTanimoto>
0.072 

> <ROCS_RefTversky>
0.321 

> <ROCS_RefColorTversky>
0.083 

> <ROCS_RefTverskyCombo>
0.403 

> <ROCS_FitTversky>
1.674 

> <ROCS_FitColorTversky>
0.371 

> <ROCS_FitTverskyCombo>
2.045 

> <ROCS_ColorScore>
-5.979

> <ROCS_Overlap>
2141.860

> <ROCS_Rank>
205                 

$$$$
untitled-dbase-103728_15
  -OEChem-08222312023D

 31 33  0     0  0  0  0  0  0999 V2000
   -7.7135    6.2001  -15.6651 C   0  0  0  0  0  0  0  0  0  0  0  0
   -7.2551    5.6408  -16.8527 C   0  0  0  0  0  0  0  0  0  0  0  0
   -9.8250    5.1793  -16.0602 C   0  0  0  0  0  0  0  0  0  0  0  0
   -9.0217    5.9697  -15.2542 C   0  0  0  0  0  0  0  0  0  0  0  0
   -8.1374    4.8649  -17.5871 C   0  0  0  0  0  0  0  0  0  0  0  0
   -8.9127    6.2718  -10.3655 C   0  0  0  0  0  0  0  0  0  0  0  0
   -8.9426    4.5180   -9.0635 C   0  0  0  0  0  0  0  0  0  0  0  0
   -9.5355    6.5460  -14.0023 C   0  0  0  0  0  0  0  0  0  0  0  0
   -8.8237    7.0712  -11.6144 C   0  0  0  0  0  0  0  0  0  0  0  0
   -8.7205    4.0891  -11.5407 C   0  0  0  0  0  0  0  0  0  0  0  0
   -8.1978    4.9123  -12.7139 C   0  0  0  0  0  0  0  0  0  0  0  0
   -8.9237    3.1109   -8.6269 C   0  0  0  0  0  0  0  0  0  0  0  0
   -9.4151    4.6189  -17.2202 N   0  0  0  0  0  0  0  0  0  0  0  0
   -9.0412    6.6951   -9.1247 N   0  0  0  0  0  0  0  0  0  0  0  0
   -9.0609    5.5830   -8.3009 N   0  0  0  0  0  0  0  0  0  0  0  0
   -8.8469    4.9071  -10.3571 N   0  0  0  0  0  0  0  0  0  0  0  0
   -8.8994    6.2006  -12.8044 N   0  0  0  0  0  0  0  0  0  0  0  0
  -10.5061    7.2951  -14.1052 O   0  0  0  0  0  0  0  0  0  0  0  0
   -9.0454    2.9382   -7.2700 F   0  0  0  0  0  0  0  0  0  0  0  0
   -9.9288    2.3411   -9.1586 F   0  0  0  0  0  0  0  0  0  0  0  0
   -7.7663    2.4542   -8.9606 F   0  0  0  0  0  0  0  0  0  0  0  0
   -7.6588    4.1354  -19.0644 Cl  0  0  0  0  0  0  0  0  0  0  0  0
   -7.0438    6.8127  -15.0675 H   0  0  0  0  0  0  0  0  0  0  0  0
   -6.2360    5.8147  -17.1820 H   0  0  0  0  0  0  0  0  0  0  0  0
  -10.8548    4.9634  -15.7921 H   0  0  0  0  0  0  0  0  0  0  0  0
   -9.6196    7.8206  -11.6292 H   0  0  0  0  0  0  0  0  0  0  0  0
   -7.8614    7.5930  -11.6563 H   0  0  0  0  0  0  0  0  0  0  0  0
   -9.7155    3.6855  -11.7583 H   0  0  0  0  0  0  0  0  0  0  0  0
   -8.0376    3.2622  -11.3215 H   0  0  0  0  0  0  0  0  0  0  0  0
   -7.1332    5.1410  -12.5792 H   0  0  0  0  0  0  0  0  0  0  0  0
   -8.2954    4.3442  -13.6445 H   0  0  0  0  0  0  0  0  0  0  0  0
  1  2  1  0  0  0  0
  1  4  2  0  0  0  0
  2  5  2  0  0  0  0
  3  4  1  0  0  0  0
  3 13  2  0  0  0  0
  4  8  1  0  0  0  0
  5 13  1  0  0  0  0
  5 22  1  0  0  0  0
  6  9  1  0  0  0  0
  6 14  2  0  0  0  0
  6 16  1  0  0  0  0
  7 12  1  0  0  0  0
  7 15  2  0  0  0  0
  7 16  1  0  0  0  0
  8 17  1  0  0  0  0
  8 18  2  0  0  0  0
  9 17  1  0  0  0  0
 10 11  1  0  0  0  0
 10 16  1  0  0  0  0
 11 17  1  0  0  0  0
 12 19  1  0  0  0  0
 12 20  1  0  0  0  0
 12 21  1  0  0  0  0
 14 15  1  0  0  0  0
  1 23  1  0  0  0  0
  2 24  1  0  0  0  0
  3 25  1  0  0  0  0
  9 26  1  0  0  0  0
  9 27  1  0  0  0  0
 10 28  1  0  0  0  0
 10 29  1  0  0  0  0
 11 30  1  0  0  0  0
 11 31  1  0  0  0  0
M  END
> <id>
EN300-26615323

> <smiles>
FC(F)(F)C1=NN=C2CN(CCN12)C(=O)C=3C=CC(Cl)=NC3

> <IUPAC Name>
2-chloro-5-[3-(trifluoromethyl)-5H,6H,7H,8H-[1,2,4]triazolo[4,3-a]pyrazine-7-carbonyl]pyridine

> <CAS>
2411272-15-4

> <URL>
https://www.enaminestore.com/catalog/EN300-26615323

> <ROCS_ShapeQuery>
_x0404_0B

> <ROCS_TanimotoCombo>
0.441 

> <ROCS_ShapeTanimoto>
0.374 

> <ROCS_ColorTanimoto>
0.066 

> <ROCS_RefTversky>
0.326 

> <ROCS_RefColorTversky>
0.072 

> <ROCS_RefTverskyCombo>
0.398 

> <ROCS_FitTversky>
1.650 

> <ROCS_FitColorTversky>
0.481 

> <ROCS_FitTverskyCombo>
2.131 

> <ROCS_ColorScore>
-5.161

> <ROCS_Overlap>
2178.434

> <ROCS_Rank>
206                 

$$$$
untitled-dbase-41930_16
  -OEChem-08222312023D

 43 45  0     1  0  0  0  0  0999 V2000
   -9.5728    2.4981   -7.2132 C   0  0  0  0  0  0  0  0  0  0  0  0
   -9.6691    2.0353   -8.5284 C   0  0  0  0  0  0  0  0  0  0  0  0
   -9.0524    3.7595   -6.9317 C   0  0  0  0  0  0  0  0  0  0  0  0
   -8.6958    4.1542   -9.2958 C   0  0  0  0  0  0  0  0  0  0  0  0
   -8.3563    4.7134  -10.5557 C   0  0  0  0  0  0  0  0  0  0  0  0
   -9.2239    2.8829   -9.5493 C   0  0  0  0  0  0  0  0  0  0  0  0
   -8.6106    4.5983   -7.9611 C   0  0  0  0  0  0  0  0  0  0  0  0
   -8.6707    3.7902  -11.5255 C   0  0  0  0  0  0  0  0  0  0  0  0
   -7.1642    3.2980  -13.3302 C   0  0  0  0  0  0  0  0  0  0  0  0
   -8.4088    5.8033  -14.6953 C   0  0  0  0  0  0  0  0  0  0  0  0
   -7.7752    6.0201  -10.9380 C   0  0  0  0  0  0  0  0  0  0  0  0
   -8.3212    6.4423  -12.3101 C   0  0  0  0  0  0  0  0  0  0  0  0
   -8.4666    3.9546  -12.9830 C   0  0  2  0  0  0  0  0  0  0  0  0
   -7.2880    5.9731  -17.3229 C   0  0  0  0  0  0  0  0  0  0  0  0
   -8.4477    3.7881  -17.7587 C   0  0  0  0  0  0  0  0  0  0  0  0
   -9.7981    5.8319  -17.2040 C   0  0  0  0  0  0  0  0  0  0  0  0
   -8.4832    5.0915  -16.9637 C   0  0  0  0  0  0  0  0  0  0  0  0
   -9.2012    2.6896  -10.9150 N   0  0  0  0  0  0  0  0  0  0  0  0
   -8.3203    5.3870  -13.3528 N   0  0  0  0  0  0  0  0  0  0  0  0
   -6.0741    3.8501  -13.3160 O   0  0  0  0  0  0  0  0  0  0  0  0
   -8.4860    6.9778  -15.0517 O   0  0  0  0  0  0  0  0  0  0  0  0
   -7.3577    1.9996  -13.6678 O   0  0  0  0  0  0  0  0  0  0  0  0
   -8.3982    4.7523  -15.5750 O   0  0  0  0  0  0  0  0  0  0  0  0
   -7.9549    6.3057   -7.4675 Br  0  0  0  0  0  0  0  0  0  0  0  0
   -9.9115    1.8633   -6.3984 H   0  0  0  0  0  0  0  0  0  0  0  0
  -10.0763    1.0534   -8.7458 H   0  0  0  0  0  0  0  0  0  0  0  0
   -9.0016    4.0798   -5.8933 H   0  0  0  0  0  0  0  0  0  0  0  0
   -8.0365    6.7721  -10.1890 H   0  0  0  0  0  0  0  0  0  0  0  0
   -6.6889    5.9660  -11.0153 H   0  0  0  0  0  0  0  0  0  0  0  0
   -9.3417    6.8581  -12.1871 H   0  0  0  0  0  0  0  0  0  0  0  0
   -7.7152    7.2785  -12.7174 H   0  0  0  0  0  0  0  0  0  0  0  0
   -9.2610    3.4770  -13.5529 H   0  0  0  0  0  0  0  0  0  0  0  0
   -7.3098    6.9097  -16.7543 H   0  0  0  0  0  0  0  0  0  0  0  0
   -6.3383    5.4666  -17.1222 H   0  0  0  0  0  0  0  0  0  0  0  0
   -7.3134    6.2539  -18.3820 H   0  0  0  0  0  0  0  0  0  0  0  0
   -9.3034    3.1524  -17.5041 H   0  0  0  0  0  0  0  0  0  0  0  0
   -7.5496    3.2080  -17.5173 H   0  0  0  0  0  0  0  0  0  0  0  0
   -8.4616    3.9725  -18.8378 H   0  0  0  0  0  0  0  0  0  0  0  0
  -10.6555    5.1997  -16.9465 H   0  0  0  0  0  0  0  0  0  0  0  0
   -9.8569    6.7516  -16.6130 H   0  0  0  0  0  0  0  0  0  0  0  0
   -9.9117    6.0905  -18.2630 H   0  0  0  0  0  0  0  0  0  0  0  0
   -9.5251    1.8574  -11.3866 H   0  0  0  0  0  0  0  0  0  0  0  0
   -6.5162    1.5522  -13.9006 H   0  0  0  0  0  0  0  0  0  0  0  0
  1  2  1  0  0  0  0
  1  3  2  0  0  0  0
  2  6  2  0  0  0  0
  3  7  1  0  0  0  0
  4  5  1  0  0  0  0
  4  6  1  0  0  0  0
  4  7  2  0  0  0  0
  5  8  2  0  0  0  0
  5 11  1  0  0  0  0
  6 18  1  0  0  0  0
  7 24  1  0  0  0  0
  8 13  1  0  0  0  0
  8 18  1  0  0  0  0
  9 13  1  0  0  0  0
  9 20  2  0  0  0  0
  9 22  1  0  0  0  0
 10 19  1  0  0  0  0
 10 21  2  0  0  0  0
 10 23  1  0  0  0  0
 11 12  1  0  0  0  0
 12 19  1  0  0  0  0
 13 19  1  0  0  0  0
 14 17  1  0  0  0  0
 15 17  1  0  0  0  0
 16 17  1  0  0  0  0
 17 23  1  0  0  0  0
  1 25  1  0  0  0  0
  2 26  1  0  0  0  0
  3 27  1  0  0  0  0
 11 28  1  0  0  0  0
 11 29  1  0  0  0  0
 12 30  1  0  0  0  0
 12 31  1  0  0  0  0
 13 32  1  0  0  0  0
 14 33  1  0  0  0  0
 14 34  1  0  0  0  0
 14 35  1  0  0  0  0
 15 36  1  0  0  0  0
 15 37  1  0  0  0  0
 15 38  1  0  0  0  0
 16 39  1  0  0  0  0
 16 40  1  0  0  0  0
 16 41  1  0  0  0  0
 18 42  1  0  0  0  0
 22 43  1  0  0  0  0
M  END
> <id>
EN300-1177938

> <smiles>
CC(C)(C)OC(=O)N1CCC2=C(NC=3C=CC=C(Br)C23)C1C(=O)O

> <IUPAC Name>
5-bromo-2-[(tert-butoxy)carbonyl]-1H,2H,3H,4H,9H-pyrido[3,4-b]indole-1-carboxylic acid

> <CAS>
2137539-79-6

> <URL>
https://www.enaminestore.com/catalog/EN300-1177938

> <ROCS_ShapeQuery>
_x0404_0B

> <ROCS_TanimotoCombo>
0.441 

> <ROCS_ShapeTanimoto>
0.349 

> <ROCS_ColorTanimoto>
0.092 

> <ROCS_RefTversky>
0.312 

> <ROCS_RefColorTversky>
0.100 

> <ROCS_RefTverskyCombo>
0.412 

> <ROCS_FitTversky>
1.505 

> <ROCS_FitColorTversky>
0.541 

> <ROCS_FitTverskyCombo>
2.046 

> <ROCS_ColorScore>
-7.209

> <ROCS_Overlap>
2086.082

> <ROCS_Rank>
207                 

$$$$
untitled-dbase-172262_1
  -OEChem-08222312023D

 37 40  0     1  0  0  0  0  0999 V2000
   -7.8292    2.3992  -10.0673 C   0  0  0  0  0  0  0  0  0  0  0  0
   -8.2157    3.6222   -9.5235 C   0  0  0  0  0  0  0  0  0  0  0  0
   -7.6906    2.2617  -11.4453 C   0  0  0  0  0  0  0  0  0  0  0  0
   -8.9773    6.9255  -12.0167 C   0  0  0  0  0  0  0  0  0  0  0  0
   -9.1125    7.0502  -10.6371 C   0  0  0  0  0  0  0  0  0  0  0  0
   -8.4691    4.7251  -10.3529 C   0  0  0  0  0  0  0  0  0  0  0  0
   -8.3287    4.5918  -11.7571 C   0  0  0  0  0  0  0  0  0  0  0  0
   -7.9389    3.3536  -12.2868 C   0  0  0  0  0  0  0  0  0  0  0  0
   -8.5865    5.7014  -12.5741 C   0  0  0  0  0  0  0  0  0  0  0  0
   -8.8602    5.9581   -9.8097 C   0  0  0  0  0  0  0  0  0  0  0  0
   -7.7858    3.1907  -13.7497 C   0  0  0  0  0  0  0  0  0  0  0  0
   -8.4455    5.5858  -14.0423 C   0  0  0  0  0  0  0  0  0  0  0  0
   -7.6642    5.3566  -18.6262 C   0  0  0  0  0  0  0  0  0  0  0  0
   -6.6744    5.1561  -16.3294 C   0  0  0  0  0  0  0  0  0  0  0  0
   -8.7961    4.4466  -18.2125 C   0  0  0  0  0  0  0  0  0  0  0  0
   -9.0753    4.5488  -16.7240 C   0  0  0  0  0  0  0  0  0  0  0  0
   -7.8089    4.2214  -15.9493 C   0  0  2  0  0  0  0  0  0  0  0  0
   -6.7101    5.6130  -17.6464 N   0  0  0  0  0  0  0  0  0  0  0  0
   -8.0207    4.3365  -14.5309 N   0  0  0  0  0  0  0  0  0  0  0  0
   -9.0140    6.1420   -8.4135 N   0  0  0  0  0  0  0  0  0  0  0  0
   -7.4768    2.0890  -14.1982 O   0  0  0  0  0  0  0  0  0  0  0  0
   -8.7053    6.5575  -14.7489 O   0  0  0  0  0  0  0  0  0  0  0  0
   -7.5779    5.7922  -19.7742 O   0  0  0  0  0  0  0  0  0  0  0  0
   -5.7512    5.4306  -15.5629 O   0  0  0  0  0  0  0  0  0  0  0  0
   -7.6366    1.5522   -9.4151 H   0  0  0  0  0  0  0  0  0  0  0  0
   -8.3131    3.6864   -8.4422 H   0  0  0  0  0  0  0  0  0  0  0  0
   -7.3874    1.2970  -11.8432 H   0  0  0  0  0  0  0  0  0  0  0  0
   -9.1803    7.7925  -12.6397 H   0  0  0  0  0  0  0  0  0  0  0  0
   -9.4160    8.0062  -10.2175 H   0  0  0  0  0  0  0  0  0  0  0  0
   -9.6926    4.7290  -18.7750 H   0  0  0  0  0  0  0  0  0  0  0  0
   -8.5272    3.4213  -18.4902 H   0  0  0  0  0  0  0  0  0  0  0  0
   -9.4172    5.5650  -16.4870 H   0  0  0  0  0  0  0  0  0  0  0  0
   -9.8807    3.8564  -16.4529 H   0  0  0  0  0  0  0  0  0  0  0  0
   -7.4840    3.1942  -16.1579 H   0  0  0  0  0  0  0  0  0  0  0  0
   -5.9382    6.2116  -17.9274 H   0  0  0  0  0  0  0  0  0  0  0  0
   -8.8842    5.3610   -7.8077 H   0  0  0  0  0  0  0  0  0  0  0  0
   -9.3397    7.0221   -8.0769 H   0  0  0  0  0  0  0  0  0  0  0  0
  1  2  1  0  0  0  0
  1  3  2  0  0  0  0
  2  6  2  0  0  0  0
  3  8  1  0  0  0  0
  4  5  1  0  0  0  0
  4  9  2  0  0  0  0
  5 10  2  0  0  0  0
  6  7  1  0  0  0  0
  6 10  1  0  0  0  0
  7  8  2  0  0  0  0
  7  9  1  0  0  0  0
  8 11  1  0  0  0  0
  9 12  1  0  0  0  0
 10 20  1  0  0  0  0
 11 19  1  0  0  0  0
 11 21  2  0  0  0  0
 12 19  1  0  0  0  0
 12 22  2  0  0  0  0
 13 15  1  0  0  0  0
 13 18  1  0  0  0  0
 13 23  2  0  0  0  0
 14 17  1  0  0  0  0
 14 18  1  0  0  0  0
 14 24  2  0  0  0  0
 15 16  1  0  0  0  0
 16 17  1  0  0  0  0
 17 19  1  0  0  0  0
  1 25  1  0  0  0  0
  2 26  1  0  0  0  0
  3 27  1  0  0  0  0
  4 28  1  0  0  0  0
  5 29  1  0  0  0  0
 15 30  1  0  0  0  0
 15 31  1  0  0  0  0
 16 32  1  0  0  0  0
 16 33  1  0  0  0  0
 17 34  1  0  0  0  0
 18 35  1  0  0  0  0
 20 36  1  0  0  0  0
 20 37  1  0  0  0  0
M  END
> <id>
EN300-43346089

> <smiles>
NC=1C=CC=2C(=O)N(C3CCC(=O)NC3=O)C(=O)C4=CC=CC1C42

> <IUPAC Name>
10-amino-3-(2,6-dioxopiperidin-3-yl)-3-azatricyclo[7.3.1.0,5,13]trideca-1(13),5,7,9,11-pentaene-2,4-dione

> <CAS>
2870645-52-4

> <Purity>
95

> <URL>
https://www.enaminestore.com/catalog/EN300-43346089

> <ROCS_ShapeQuery>
_x0404_0B

> <ROCS_TanimotoCombo>
0.441 

> <ROCS_ShapeTanimoto>
0.349 

> <ROCS_ColorTanimoto>
0.092 

> <ROCS_RefTversky>
0.314 

> <ROCS_RefColorTversky>
0.100 

> <ROCS_RefTverskyCombo>
0.415 

> <ROCS_FitTversky>
1.466 

> <ROCS_FitColorTversky>
0.510 

> <ROCS_FitTverskyCombo>
1.976 

> <ROCS_ColorScore>
-7.264

> <ROCS_Overlap>
2100.068

> <ROCS_Rank>
208                 

$$$$
untitled-dbase-119644_0
  -OEChem-08222312023D

 47 51  0     1  0  0  0  0  0999 V2000
   -8.2798    7.1782  -10.4649 C   0  0  0  0  0  0  0  0  0  0  0  0
   -8.5717    7.3587  -11.7647 C   0  0  0  0  0  0  0  0  0  0  0  0
   -7.5101    5.4123  -16.8820 C   0  0  0  0  0  0  0  0  0  0  0  0
  -10.0118    4.7981  -11.2733 C   0  0  0  0  0  0  0  0  0  0  0  0
   -6.7882    5.7920  -17.9429 C   0  0  0  0  0  0  0  0  0  0  0  0
   -6.8591    3.0399  -13.4111 C   0  0  0  0  0  0  0  0  0  0  0  0
   -6.9165    4.9245  -15.5847 C   0  0  0  0  0  0  0  0  0  0  0  0
   -9.6358    6.9999  -14.9124 C   0  0  0  0  0  0  0  0  0  0  0  0
   -9.5874    6.7498  -16.4253 C   0  0  0  0  0  0  0  0  0  0  0  0
   -9.2195    4.3733  -15.6376 C   0  0  0  0  0  0  0  0  0  0  0  0
   -8.1646    5.7874   -9.8734 C   0  0  2  0  0  0  0  0  0  0  0  0
   -8.0198    3.9872  -13.3855 C   0  0  1  0  0  0  0  0  0  0  0  0
   -8.4947    6.3182  -14.1396 C   0  0  1  0  0  0  0  0  0  0  0  0
   -7.8753    4.9899  -12.2270 C   0  0  1  0  0  0  0  0  0  0  0  0
   -8.7750    6.1511  -12.6428 C   0  0  1  0  0  0  0  0  0  0  0  0
   -9.0231    5.3644  -16.7908 C   0  0  2  0  0  0  0  0  0  0  0  0
   -8.5400    4.6571  -10.8859 C   0  0  2  0  0  0  0  0  0  0  0  0
   -8.1508    4.8691  -14.6501 C   0  0  1  0  0  0  0  0  0  0  0  0
   -8.2273    3.2631  -10.3583 C   0  0  0  0  0  0  0  0  0  0  0  0
  -10.9685    4.2805  -10.7206 O   0  0  0  0  0  0  0  0  0  0  0  0
   -5.7325    3.2995  -13.0151 O   0  0  0  0  0  0  0  0  0  0  0  0
  -10.0953    5.6382  -12.3642 O   0  0  0  0  0  0  0  0  0  0  0  0
   -7.2265    1.8467  -13.9387 O   0  0  0  0  0  0  0  0  0  0  0  0
   -8.9843    5.7240   -8.7104 O   0  0  0  0  0  0  0  0  0  0  0  0
   -9.5990    4.8832  -17.9904 O   0  0  0  0  0  0  0  0  0  0  0  0
   -8.1284    8.0361   -9.8176 H   0  0  0  0  0  0  0  0  0  0  0  0
   -8.6867    8.3566  -12.1729 H   0  0  0  0  0  0  0  0  0  0  0  0
   -7.2759    6.1330  -18.8467 H   0  0  0  0  0  0  0  0  0  0  0  0
   -5.7070    5.7633  -17.9118 H   0  0  0  0  0  0  0  0  0  0  0  0
   -6.4939    3.9281  -15.7570 H   0  0  0  0  0  0  0  0  0  0  0  0
   -6.1286    5.5835  -15.2067 H   0  0  0  0  0  0  0  0  0  0  0  0
   -9.6350    8.0783  -14.7142 H   0  0  0  0  0  0  0  0  0  0  0  0
  -10.6054    6.6362  -14.5504 H   0  0  0  0  0  0  0  0  0  0  0  0
  -10.6008    6.8669  -16.8307 H   0  0  0  0  0  0  0  0  0  0  0  0
   -8.9957    7.5404  -16.9052 H   0  0  0  0  0  0  0  0  0  0  0  0
  -10.2371    4.3926  -15.2312 H   0  0  0  0  0  0  0  0  0  0  0  0
   -9.0314    3.3395  -15.9588 H   0  0  0  0  0  0  0  0  0  0  0  0
   -7.1242    5.6577   -9.5489 H   0  0  0  0  0  0  0  0  0  0  0  0
   -8.9218    3.3737  -13.2715 H   0  0  0  0  0  0  0  0  0  0  0  0
   -7.5991    6.9473  -14.2459 H   0  0  0  0  0  0  0  0  0  0  0  0
   -6.8240    5.2863  -12.1054 H   0  0  0  0  0  0  0  0  0  0  0  0
   -7.1727    3.1929  -10.0908 H   0  0  0  0  0  0  0  0  0  0  0  0
   -8.4485    2.5166  -11.1215 H   0  0  0  0  0  0  0  0  0  0  0  0
   -8.8306    3.0544   -9.4744 H   0  0  0  0  0  0  0  0  0  0  0  0
   -6.4788    1.2123  -13.9660 H   0  0  0  0  0  0  0  0  0  0  0  0
   -8.6491    6.3974   -8.0980 H   0  0  0  0  0  0  0  0  0  0  0  0
   -9.2508    3.9866  -18.1357 H   0  0  0  0  0  0  0  0  0  0  0  0
  1  2  2  0  0  0  0
  1 11  1  0  0  0  0
  2 15  1  0  0  0  0
  3  5  2  0  0  0  0
  3  7  1  0  0  0  0
  3 16  1  0  0  0  0
  4 17  1  0  0  0  0
  4 20  2  0  0  0  0
  4 22  1  0  0  0  0
  6 12  1  0  0  0  0
  6 21  2  0  0  0  0
  6 23  1  0  0  0  0
  7 18  1  0  0  0  0
  8  9  1  0  0  0  0
  8 13  1  0  0  0  0
  9 16  1  0  0  0  0
 10 16  1  0  0  0  0
 10 18  1  0  0  0  0
 11 17  1  0  0  0  0
 11 24  1  0  0  0  0
 12 14  1  0  0  0  0
 12 18  1  0  0  0  0
 13 15  1  0  0  0  0
 13 18  1  0  0  0  0
 14 15  1  0  0  0  0
 14 17  1  0  0  0  0
 15 22  1  0  0  0  0
 16 25  1  0  0  0  0
 17 19  1  0  0  0  0
  1 26  1  0  0  0  0
  2 27  1  0  0  0  0
  5 28  1  0  0  0  0
  5 29  1  0  0  0  0
  7 30  1  0  0  0  0
  7 31  1  0  0  0  0
  8 32  1  0  0  0  0
  8 33  1  0  0  0  0
  9 34  1  0  0  0  0
  9 35  1  0  0  0  0
 10 36  1  0  0  0  0
 10 37  1  0  0  0  0
 11 38  1  0  0  0  0
 12 39  1  0  0  0  0
 13 40  1  0  0  0  0
 14 41  1  0  0  0  0
 19 42  1  0  0  0  0
 19 43  1  0  0  0  0
 19 44  1  0  0  0  0
 23 45  1  0  0  0  0
 24 46  1  0  0  0  0
 25 47  1  0  0  0  0
M  END
> <id>
EN300-19354

> <smiles>
CC1(C2C(C(=O)O)C3(CC(=C)C4(O)C3)C(CC4)C52OC1=O)C(O)C=C5

> <MDLNUMBER>
MFCD00066782

> <IUPAC Name>
5,12-dihydroxy-11-methyl-6-methylidene-16-oxo-15-oxapentacyclo[9.3.2.1^{5,8}.0^{1,10}.0^{2,8}]heptadec-13-ene-9-carboxylic acid

> <CAS>
1232779-37-1

> <URL>
https://www.enaminestore.com/catalog/EN300-19354

> <ROCS_ShapeQuery>
_x0404_0B

> <ROCS_TanimotoCombo>
0.441 

> <ROCS_ShapeTanimoto>
0.338 

> <ROCS_ColorTanimoto>
0.103 

> <ROCS_RefTversky>
0.308 

> <ROCS_RefColorTversky>
0.123 

> <ROCS_RefTverskyCombo>
0.431 

> <ROCS_FitTversky>
1.403 

> <ROCS_FitColorTversky>
0.383 

> <ROCS_FitTverskyCombo>
1.786 

> <ROCS_ColorScore>
-8.989

> <ROCS_Overlap>
2057.691

> <ROCS_Rank>
209                 

$$$$
untitled-dbase-24682_0
  -OEChem-08222312023D

 47 51  0     1  0  0  0  0  0999 V2000
   -8.2817    7.1793  -10.4674 C   0  0  0  0  0  0  0  0  0  0  0  0
   -8.5771    7.3581  -11.7665 C   0  0  0  0  0  0  0  0  0  0  0  0
   -7.5000    5.4242  -16.8765 C   0  0  0  0  0  0  0  0  0  0  0  0
  -10.0100    4.7939  -11.2703 C   0  0  0  0  0  0  0  0  0  0  0  0
   -6.7716    5.8225  -17.9262 C   0  0  0  0  0  0  0  0  0  0  0  0
   -6.8591    3.0401  -13.4110 C   0  0  0  0  0  0  0  0  0  0  0  0
   -6.9107    4.9329  -15.5784 C   0  0  0  0  0  0  0  0  0  0  0  0
   -9.6509    6.9879  -14.9130 C   0  0  0  0  0  0  0  0  0  0  0  0
   -9.6018    6.7380  -16.4261 C   0  0  0  0  0  0  0  0  0  0  0  0
   -9.2086    4.3684  -15.6449 C   0  0  0  0  0  0  0  0  0  0  0  0
   -8.1630    5.7892   -9.8746 C   0  0  2  0  0  0  0  0  0  0  0  0
   -8.0196    3.9876  -13.3862 C   0  0  1  0  0  0  0  0  0  0  0  0
   -8.5035    6.3165  -14.1409 C   0  0  1  0  0  0  0  0  0  0  0  0
   -7.8759    4.9909  -12.2284 C   0  0  1  0  0  0  0  0  0  0  0  0
   -8.7796    6.1494  -12.6432 C   0  0  1  0  0  0  0  0  0  0  0  0
   -9.0145    5.3629  -16.7954 C   0  0  2  0  0  0  0  0  0  0  0  0
   -8.5372    4.6571  -10.8859 C   0  0  2  0  0  0  0  0  0  0  0  0
   -8.1492    4.8696  -14.6506 C   0  0  1  0  0  0  0  0  0  0  0  0
   -8.2196    3.2642  -10.3583 C   0  0  0  0  0  0  0  0  0  0  0  0
  -10.9643    4.2738  -10.7156 O   0  0  0  0  0  0  0  0  0  0  0  0
   -5.7328    3.2995  -13.0143 O   0  0  0  0  0  0  0  0  0  0  0  0
  -10.0980    5.6335  -12.3611 O   0  0  0  0  0  0  0  0  0  0  0  0
   -7.2264    1.8470  -13.9390 O   0  0  0  0  0  0  0  0  0  0  0  0
   -8.9811    5.7263   -8.7105 O   0  0  0  0  0  0  0  0  0  0  0  0
   -9.5932    4.8607  -17.9857 O   0  0  0  0  0  0  0  0  0  0  0  0
   -8.1305    8.0380   -9.8212 H   0  0  0  0  0  0  0  0  0  0  0  0
   -8.6950    8.3553  -12.1753 H   0  0  0  0  0  0  0  0  0  0  0  0
   -7.2537    6.1667  -18.8317 H   0  0  0  0  0  0  0  0  0  0  0  0
   -5.6905    5.8059  -17.8840 H   0  0  0  0  0  0  0  0  0  0  0  0
   -6.4838    3.9388  -15.7529 H   0  0  0  0  0  0  0  0  0  0  0  0
   -6.1268    5.5928  -15.1938 H   0  0  0  0  0  0  0  0  0  0  0  0
   -9.6592    8.0664  -14.7152 H   0  0  0  0  0  0  0  0  0  0  0  0
  -10.6171    6.6160  -14.5504 H   0  0  0  0  0  0  0  0  0  0  0  0
  -10.6178    6.8386  -16.8294 H   0  0  0  0  0  0  0  0  0  0  0  0
   -9.0238    7.5376  -16.9076 H   0  0  0  0  0  0  0  0  0  0  0  0
  -10.2286    4.3791  -15.2442 H   0  0  0  0  0  0  0  0  0  0  0  0
   -9.0120    3.3365  -15.9672 H   0  0  0  0  0  0  0  0  0  0  0  0
   -7.1219    5.6619   -9.5512 H   0  0  0  0  0  0  0  0  0  0  0  0
   -8.9222    3.3746  -13.2729 H   0  0  0  0  0  0  0  0  0  0  0  0
   -7.6130    6.9526  -14.2496 H   0  0  0  0  0  0  0  0  0  0  0  0
   -6.8251    5.2903  -12.1088 H   0  0  0  0  0  0  0  0  0  0  0  0
   -7.1642    3.1970  -10.0929 H   0  0  0  0  0  0  0  0  0  0  0  0
   -8.4402    2.5168  -11.1208 H   0  0  0  0  0  0  0  0  0  0  0  0
   -8.8205    3.0541   -9.4732 H   0  0  0  0  0  0  0  0  0  0  0  0
   -6.4788    1.2125  -13.9658 H   0  0  0  0  0  0  0  0  0  0  0  0
   -8.8863    4.8295   -8.3533 H   0  0  0  0  0  0  0  0  0  0  0  0
   -9.2409    3.9639  -18.1193 H   0  0  0  0  0  0  0  0  0  0  0  0
  1  2  2  0  0  0  0
  1 11  1  0  0  0  0
  2 15  1  0  0  0  0
  3  5  2  0  0  0  0
  3  7  1  0  0  0  0
  3 16  1  0  0  0  0
  4 17  1  0  0  0  0
  4 20  2  0  0  0  0
  4 22  1  0  0  0  0
  6 12  1  6  0  0  0
  6 21  2  0  0  0  0
  6 23  1  0  0  0  0
  7 18  1  0  0  0  0
  8  9  1  0  0  0  0
  8 13  1  0  0  0  0
  9 16  1  0  0  0  0
 10 16  1  0  0  0  0
 10 18  1  0  0  0  0
 11 17  1  0  0  0  0
 11 24  1  0  0  0  0
 12 14  1  0  0  0  0
 12 18  1  0  0  0  0
 13 15  1  0  0  0  0
 13 18  1  0  0  0  0
 14 15  1  0  0  0  0
 14 17  1  0  0  0  0
 15 22  1  0  0  0  0
 16 25  1  1  0  0  0
 17 19  1  0  0  0  0
  1 26  1  0  0  0  0
  2 27  1  0  0  0  0
  5 28  1  0  0  0  0
  5 29  1  0  0  0  0
  7 30  1  0  0  0  0
  7 31  1  0  0  0  0
  8 32  1  0  0  0  0
  8 33  1  0  0  0  0
  9 34  1  0  0  0  0
  9 35  1  0  0  0  0
 10 36  1  0  0  0  0
 10 37  1  0  0  0  0
 11 38  1  0  0  0  0
 12 39  1  0  0  0  0
 13 40  1  0  0  0  0
 14 41  1  0  0  0  0
 19 42  1  0  0  0  0
 19 43  1  0  0  0  0
 19 44  1  0  0  0  0
 23 45  1  0  0  0  0
 24 46  1  0  0  0  0
 25 47  1  0  0  0  0
M  END
> <id>
EN300-35037

> <smiles>
CC1(C2[C@H](C(=O)O)C3(CC(=C)[C@@]4(O)C3)C(CC4)C52OC1=O)C(O)C=C5

> <MDLNUMBER>
MFCD34184086

> <IUPAC Name>
(5S,9S)-5,12-dihydroxy-11-methyl-6-methylidene-16-oxo-15-oxapentacyclo[9.3.2.1^{5,8}.0^{1,10}.0^{2,8}]heptadec-13-ene-9-carboxylic acid

> <Purity>
95

> <URL>
https://www.enaminestore.com/catalog/EN300-35037

> <ROCS_ShapeQuery>
_x0404_0B

> <ROCS_TanimotoCombo>
0.441 

> <ROCS_ShapeTanimoto>
0.338 

> <ROCS_ColorTanimoto>
0.103 

> <ROCS_RefTversky>
0.308 

> <ROCS_RefColorTversky>
0.123 

> <ROCS_RefTverskyCombo>
0.431 

> <ROCS_FitTversky>
1.402 

> <ROCS_FitColorTversky>
0.383 

> <ROCS_FitTverskyCombo>
1.786 

> <ROCS_ColorScore>
-8.992

> <ROCS_Overlap>
2056.929

> <ROCS_Rank>
210                 

$$$$
untitled-dbase-148515_1344
  -OEChem-08222312023D

 51 53  0     1  0  0  0  0  0999 V2000
   -8.7116    5.5723  -16.7615 C   0  0  0  0  0  0  0  0  0  0  0  0
   -8.2156    5.2773  -15.5217 C   0  0  0  0  0  0  0  0  0  0  0  0
   -7.5267    4.0657  -15.6598 C   0  0  0  0  0  0  0  0  0  0  0  0
   -9.1952    5.2139   -9.0708 C   0  0  0  0  0  0  0  0  0  0  0  0
   -7.6219    6.4507  -12.1736 C   0  0  0  0  0  0  0  0  0  0  0  0
   -9.1691    4.5574  -12.6640 C   0  0  0  0  0  0  0  0  0  0  0  0
   -6.6665    4.4397  -13.4031 C   0  0  0  0  0  0  0  0  0  0  0  0
   -7.4508    5.9401  -10.7451 C   0  0  0  0  0  0  0  0  0  0  0  0
   -8.9807    4.0398  -11.2420 C   0  0  0  0  0  0  0  0  0  0  0  0
   -6.8048    3.4162  -14.5488 C   0  0  1  0  0  0  0  0  0  0  0  0
   -7.9413    5.3328  -13.1939 C   0  0  0  0  0  0  0  0  0  0  0  0
  -10.0312    3.8878  -19.1941 C   0  0  0  0  0  0  0  0  0  0  0  0
   -9.4714    4.5281   -6.3056 C   0  0  0  0  0  0  0  0  0  0  0  0
   -9.9412    2.1993   -7.1211 C   0  0  0  0  0  0  0  0  0  0  0  0
   -7.7122    3.2604   -7.5833 C   0  0  0  0  0  0  0  0  0  0  0  0
   -8.6078    4.3618  -18.9553 C   0  0  0  0  0  0  0  0  0  0  0  0
   -9.2103    3.5080   -7.4128 C   0  0  0  0  0  0  0  0  0  0  0  0
   -7.5860    3.5913  -16.9065 N   0  0  0  0  0  0  0  0  0  0  0  0
   -8.3153    4.5272  -17.5515 N   0  0  0  0  0  0  0  0  0  0  0  0
   -8.5863    5.1110  -10.3272 N   0  0  0  0  0  0  0  0  0  0  0  0
   -9.2546    6.2509   -8.4122 O   0  0  0  0  0  0  0  0  0  0  0  0
   -8.3381    6.0294  -14.4097 O   0  0  0  0  0  0  0  0  0  0  0  0
   -7.4888    2.2630  -14.0678 O   0  0  0  0  0  0  0  0  0  0  0  0
   -9.7295    4.0273   -8.6426 O   0  0  0  0  0  0  0  0  0  0  0  0
   -9.2863    6.4035  -17.1466 H   0  0  0  0  0  0  0  0  0  0  0  0
   -8.4224    7.2071  -12.1621 H   0  0  0  0  0  0  0  0  0  0  0  0
   -6.7023    6.9782  -12.4773 H   0  0  0  0  0  0  0  0  0  0  0  0
   -9.3906    3.7079  -13.3266 H   0  0  0  0  0  0  0  0  0  0  0  0
  -10.0525    5.2118  -12.6748 H   0  0  0  0  0  0  0  0  0  0  0  0
   -6.4656    3.8887  -12.4694 H   0  0  0  0  0  0  0  0  0  0  0  0
   -5.7765    5.0635  -13.5724 H   0  0  0  0  0  0  0  0  0  0  0  0
   -6.5149    5.3761  -10.6637 H   0  0  0  0  0  0  0  0  0  0  0  0
   -7.3847    6.7760  -10.0373 H   0  0  0  0  0  0  0  0  0  0  0  0
   -9.9174    3.6148  -10.8552 H   0  0  0  0  0  0  0  0  0  0  0  0
   -8.2449    3.2270  -11.2458 H   0  0  0  0  0  0  0  0  0  0  0  0
   -5.8140    3.0961  -14.8946 H   0  0  0  0  0  0  0  0  0  0  0  0
  -10.2164    2.9276  -18.7010 H   0  0  0  0  0  0  0  0  0  0  0  0
  -10.2145    3.7622  -20.2656 H   0  0  0  0  0  0  0  0  0  0  0  0
  -10.7584    4.6084  -18.8053 H   0  0  0  0  0  0  0  0  0  0  0  0
   -8.9485    5.4690   -6.5113 H   0  0  0  0  0  0  0  0  0  0  0  0
  -10.5399    4.7407   -6.1968 H   0  0  0  0  0  0  0  0  0  0  0  0
   -9.0907    4.1668   -5.3434 H   0  0  0  0  0  0  0  0  0  0  0  0
   -9.7567    1.4644   -7.9130 H   0  0  0  0  0  0  0  0  0  0  0  0
  -11.0256    2.3559   -7.0920 H   0  0  0  0  0  0  0  0  0  0  0  0
   -9.6278    1.7657   -6.1659 H   0  0  0  0  0  0  0  0  0  0  0  0
   -7.5246    2.5287   -8.3774 H   0  0  0  0  0  0  0  0  0  0  0  0
   -7.1764    4.1828   -7.8296 H   0  0  0  0  0  0  0  0  0  0  0  0
   -7.2800    2.8405   -6.6677 H   0  0  0  0  0  0  0  0  0  0  0  0
   -8.4321    5.3226  -19.4522 H   0  0  0  0  0  0  0  0  0  0  0  0
   -7.8880    3.6459  -19.3679 H   0  0  0  0  0  0  0  0  0  0  0  0
   -7.5577    1.6487  -14.8157 H   0  0  0  0  0  0  0  0  0  0  0  0
  1  2  2  0  0  0  0
  1 19  1  0  0  0  0
  2  3  1  0  0  0  0
  2 22  1  0  0  0  0
  3 10  1  0  0  0  0
  3 18  2  0  0  0  0
  4 20  1  0  0  0  0
  4 21  2  0  0  0  0
  4 24  1  0  0  0  0
  5  8  1  0  0  0  0
  5 11  1  0  0  0  0
  6  9  1  0  0  0  0
  6 11  1  0  0  0  0
  7 10  1  0  0  0  0
  7 11  1  0  0  0  0
  8 20  1  0  0  0  0
  9 20  1  0  0  0  0
 10 23  1  0  0  0  0
 11 22  1  0  0  0  0
 12 16  1  0  0  0  0
 13 17  1  0  0  0  0
 14 17  1  0  0  0  0
 15 17  1  0  0  0  0
 16 19  1  0  0  0  0
 17 24  1  0  0  0  0
 18 19  1  0  0  0  0
  1 25  1  0  0  0  0
  5 26  1  0  0  0  0
  5 27  1  0  0  0  0
  6 28  1  0  0  0  0
  6 29  1  0  0  0  0
  7 30  1  0  0  0  0
  7 31  1  0  0  0  0
  8 32  1  0  0  0  0
  8 33  1  0  0  0  0
  9 34  1  0  0  0  0
  9 35  1  0  0  0  0
 10 36  1  0  0  0  0
 12 37  1  0  0  0  0
 12 38  1  0  0  0  0
 12 39  1  0  0  0  0
 13 40  1  0  0  0  0
 13 41  1  0  0  0  0
 13 42  1  0  0  0  0
 14 43  1  0  0  0  0
 14 44  1  0  0  0  0
 14 45  1  0  0  0  0
 15 46  1  0  0  0  0
 15 47  1  0  0  0  0
 15 48  1  0  0  0  0
 16 49  1  0  0  0  0
 16 50  1  0  0  0  0
 23 51  1  0  0  0  0
M  END
> <id>
EN300-27718476

> <smiles>
CCN1C=C2OC3(CCN(CC3)C(=O)OC(C)(C)C)CC(O)C2=N1

> <IUPAC Name>
tert-butyl 2'-ethyl-7'-hydroxy-6',7'-dihydro-2'H-spiro[piperidine-4,5'-pyrano[3,2-c]pyrazole]-1-carboxylate

> <CAS>
2639464-07-4

> <URL>
https://www.enaminestore.com/catalog/EN300-27718476

> <ROCS_ShapeQuery>
_x0404_0B

> <ROCS_TanimotoCombo>
0.440 

> <ROCS_ShapeTanimoto>
0.326 

> <ROCS_ColorTanimoto>
0.114 

> <ROCS_RefTversky>
0.297 

> <ROCS_RefColorTversky>
0.119 

> <ROCS_RefTverskyCombo>
0.416 

> <ROCS_FitTversky>
1.437 

> <ROCS_FitColorTversky>
0.699 

> <ROCS_FitTverskyCombo>
2.136 

> <ROCS_ColorScore>
-8.635

> <ROCS_Overlap>
1983.490

> <ROCS_Rank>
211                 

$$$$
untitled-dbase-180584_9
  -OEChem-08222312023D

 39 40  0     1  0  0  0  0  0999 V2000
   -9.2223    6.2240  -12.2005 C   0  0  0  0  0  0  0  0  0  0  0  0
   -9.2630    6.6515  -10.8750 C   0  0  0  0  0  0  0  0  0  0  0  0
   -8.5961    4.0108  -11.4632 C   0  0  0  0  0  0  0  0  0  0  0  0
   -8.6561    4.4189  -10.1210 C   0  0  0  0  0  0  0  0  0  0  0  0
   -8.8820    4.9065  -12.4950 C   0  0  0  0  0  0  0  0  0  0  0  0
   -8.9624    5.7599   -9.8408 C   0  0  0  0  0  0  0  0  0  0  0  0
   -8.4994    5.2225  -14.9577 C   0  0  0  0  0  0  0  0  0  0  0  0
   -8.7713    4.0324   -7.6551 C   0  0  0  0  0  0  0  0  0  0  0  0
   -8.3490    5.4892   -7.5812 C   0  0  0  0  0  0  0  0  0  0  0  0
   -8.3468    3.4512   -9.0033 C   0  0  1  0  0  0  0  0  0  0  0  0
   -6.8290    5.5778  -17.2518 C   0  0  0  0  0  0  0  0  0  0  0  0
   -8.3731    3.9613  -18.3972 C   0  0  0  0  0  0  0  0  0  0  0  0
   -9.2591    6.1567  -17.5587 C   0  0  0  0  0  0  0  0  0  0  0  0
   -8.2546    5.0315  -17.3142 C   0  0  0  0  0  0  0  0  0  0  0  0
   -9.0195    2.1826   -9.1889 N   0  0  0  0  0  0  0  0  0  0  0  0
   -8.8209    4.4819  -13.8229 N   0  0  0  0  0  0  0  0  0  0  0  0
   -8.2043    6.4103  -15.0068 O   0  0  0  0  0  0  0  0  0  0  0  0
   -9.0147    6.2781   -8.5712 O   0  0  0  0  0  0  0  0  0  0  0  0
   -8.5605    4.4116  -16.0597 O   0  0  0  0  0  0  0  0  0  0  0  0
   -9.4567    6.9268  -12.9956 H   0  0  0  0  0  0  0  0  0  0  0  0
   -9.5346    7.6801  -10.6527 H   0  0  0  0  0  0  0  0  0  0  0  0
   -8.3174    2.9852  -11.7016 H   0  0  0  0  0  0  0  0  0  0  0  0
   -8.2598    3.4788   -6.8607 H   0  0  0  0  0  0  0  0  0  0  0  0
   -9.8457    3.9248   -7.4899 H   0  0  0  0  0  0  0  0  0  0  0  0
   -8.5297    5.9258   -6.5945 H   0  0  0  0  0  0  0  0  0  0  0  0
   -7.2768    5.5669   -7.7793 H   0  0  0  0  0  0  0  0  0  0  0  0
   -7.2706    3.2713   -8.9658 H   0  0  0  0  0  0  0  0  0  0  0  0
   -6.7398    6.3463  -16.4756 H   0  0  0  0  0  0  0  0  0  0  0  0
   -6.1024    4.7860  -17.0422 H   0  0  0  0  0  0  0  0  0  0  0  0
   -6.5531    6.0594  -18.1968 H   0  0  0  0  0  0  0  0  0  0  0  0
   -9.3943    3.5665  -18.4455 H   0  0  0  0  0  0  0  0  0  0  0  0
   -7.7224    3.1077  -18.1752 H   0  0  0  0  0  0  0  0  0  0  0  0
   -8.1059    4.3535  -19.3838 H   0  0  0  0  0  0  0  0  0  0  0  0
  -10.2817    5.7651  -17.6035 H   0  0  0  0  0  0  0  0  0  0  0  0
   -9.2139    6.9158  -16.7710 H   0  0  0  0  0  0  0  0  0  0  0  0
   -9.0718    6.6436  -18.5226 H   0  0  0  0  0  0  0  0  0  0  0  0
   -8.6995    1.7910  -10.0403 H   0  0  0  0  0  0  0  0  0  0  0  0
   -8.7883    1.6018   -8.4208 H   0  0  0  0  0  0  0  0  0  0  0  0
   -9.0417    3.4938  -13.9846 H   0  0  0  0  0  0  0  0  0  0  0  0
  1  2  1  0  0  0  0
  1  5  2  0  0  0  0
  2  6  2  0  0  0  0
  3  4  2  0  0  0  0
  3  5  1  0  0  0  0
  4  6  1  0  0  0  0
  4 10  1  0  0  0  0
  5 16  1  0  0  0  0
  6 18  1  0  0  0  0
  7 16  1  0  0  0  0
  7 17  2  0  0  0  0
  7 19  1  0  0  0  0
  8  9  1  0  0  0  0
  8 10  1  0  0  0  0
  9 18  1  0  0  0  0
 10 15  1  0  0  0  0
 11 14  1  0  0  0  0
 12 14  1  0  0  0  0
 13 14  1  0  0  0  0
 14 19  1  0  0  0  0
  1 20  1  0  0  0  0
  2 21  1  0  0  0  0
  3 22  1  0  0  0  0
  8 23  1  0  0  0  0
  8 24  1  0  0  0  0
  9 25  1  0  0  0  0
  9 26  1  0  0  0  0
 10 27  1  0  0  0  0
 11 28  1  0  0  0  0
 11 29  1  0  0  0  0
 11 30  1  0  0  0  0
 12 31  1  0  0  0  0
 12 32  1  0  0  0  0
 12 33  1  0  0  0  0
 13 34  1  0  0  0  0
 13 35  1  0  0  0  0
 13 36  1  0  0  0  0
 15 37  1  0  0  0  0
 15 38  1  0  0  0  0
 16 39  1  0  0  0  0
M  END
> <id>
EN300-12454460

> <smiles>
CC(C)(C)OC(=O)NC=1C=CC=2OCCC(N)C2C1

> <MDLNUMBER>
MFCD24471575

> <IUPAC Name>
tert-butyl N-(4-amino-3,4-dihydro-2H-1-benzopyran-6-yl)carbamate

> <CAS>
1392810-25-1

> <URL>
https://www.enaminestore.com/catalog/EN300-12454460

> <ROCS_ShapeQuery>
_x0404_0B

> <ROCS_TanimotoCombo>
0.440 

> <ROCS_ShapeTanimoto>
0.335 

> <ROCS_ColorTanimoto>
0.105 

> <ROCS_RefTversky>
0.294 

> <ROCS_RefColorTversky>
0.110 

> <ROCS_RefTverskyCombo>
0.404 

> <ROCS_FitTversky>
1.701 

> <ROCS_FitColorTversky>
0.698 

> <ROCS_FitTverskyCombo>
2.398 

> <ROCS_ColorScore>
-7.944

> <ROCS_Overlap>
1962.789

> <ROCS_Rank>
212                 

$$$$
untitled-dbase-137851_1888
  -OEChem-08222312023D

 46 47  0     1  0  0  0  0  0999 V2000
   -9.2197    4.3833  -15.8657 C   0  0  0  0  0  0  0  0  0  0  0  0
   -9.6452    4.5472  -17.1839 C   0  0  0  0  0  0  0  0  0  0  0  0
   -7.0676    5.3164  -16.4443 C   0  0  0  0  0  0  0  0  0  0  0  0
   -7.9309    4.7680  -15.4958 C   0  0  0  0  0  0  0  0  0  0  0  0
   -7.4930    5.4802  -17.7625 C   0  0  0  0  0  0  0  0  0  0  0  0
   -8.7818    5.0955  -18.1323 C   0  0  0  0  0  0  0  0  0  0  0  0
   -8.8597    4.5743   -9.9319 C   0  0  0  0  0  0  0  0  0  0  0  0
   -7.7188    5.8488  -13.1985 C   0  0  0  0  0  0  0  0  0  0  0  0
   -8.8220    5.6609  -12.1610 C   0  0  0  0  0  0  0  0  0  0  0  0
   -7.9716    3.3202  -11.9125 C   0  0  0  0  0  0  0  0  0  0  0  0
   -7.4666    4.5893  -14.0561 C   0  0  1  0  0  0  0  0  0  0  0  0
   -8.0869    3.3201  -13.4348 C   0  0  1  0  0  0  0  0  0  0  0  0
   -6.5674    6.0657  -18.7749 C   0  0  0  0  0  0  0  0  0  0  0  0
  -10.7024    4.2302   -7.7707 C   0  0  0  0  0  0  0  0  0  0  0  0
   -9.8349    1.8760   -7.6486 C   0  0  0  0  0  0  0  0  0  0  0  0
   -8.2811    3.8047   -7.2314 C   0  0  0  0  0  0  0  0  0  0  0  0
   -9.4997    3.3200   -8.0156 C   0  0  0  0  0  0  0  0  0  0  0  0
   -8.5601    4.5106  -11.2967 N   0  0  0  0  0  0  0  0  0  0  0  0
   -8.8337    5.6050   -9.2624 O   0  0  0  0  0  0  0  0  0  0  0  0
   -7.4309    2.1606  -13.9476 O   0  0  0  0  0  0  0  0  0  0  0  0
   -9.1838    3.3481   -9.4122 O   0  0  0  0  0  0  0  0  0  0  0  0
   -9.1992    5.2476  -19.3970 F   0  0  0  0  0  0  0  0  0  0  0  0
   -9.8996    3.9561  -15.1334 H   0  0  0  0  0  0  0  0  0  0  0  0
  -10.6491    4.2496  -17.4721 H   0  0  0  0  0  0  0  0  0  0  0  0
   -6.0626    5.6154  -16.1558 H   0  0  0  0  0  0  0  0  0  0  0  0
   -7.9818    6.7025  -13.8505 H   0  0  0  0  0  0  0  0  0  0  0  0
   -6.7850    6.1448  -12.6883 H   0  0  0  0  0  0  0  0  0  0  0  0
   -8.8931    6.5461  -11.5124 H   0  0  0  0  0  0  0  0  0  0  0  0
   -9.7917    5.5543  -12.6651 H   0  0  0  0  0  0  0  0  0  0  0  0
   -8.4131    2.3944  -11.5096 H   0  0  0  0  0  0  0  0  0  0  0  0
   -6.9110    3.2859  -11.6056 H   0  0  0  0  0  0  0  0  0  0  0  0
   -6.3538    4.4213  -14.1317 H   0  0  0  0  0  0  0  0  0  0  0  0
   -9.1573    3.2435  -13.7176 H   0  0  0  0  0  0  0  0  0  0  0  0
   -5.9849    5.2745  -19.2626 H   0  0  0  0  0  0  0  0  0  0  0  0
   -7.1191    6.6178  -19.5469 H   0  0  0  0  0  0  0  0  0  0  0  0
   -5.8702    6.7769  -18.3130 H   0  0  0  0  0  0  0  0  0  0  0  0
  -10.4658    5.2676   -8.0329 H   0  0  0  0  0  0  0  0  0  0  0  0
  -11.5730    3.9139   -8.3545 H   0  0  0  0  0  0  0  0  0  0  0  0
  -10.9797    4.2349   -6.7104 H   0  0  0  0  0  0  0  0  0  0  0  0
   -8.9748    1.2195   -7.8228 H   0  0  0  0  0  0  0  0  0  0  0  0
  -10.6478    1.4926   -8.2759 H   0  0  0  0  0  0  0  0  0  0  0  0
  -10.1339    1.7848   -6.5995 H   0  0  0  0  0  0  0  0  0  0  0  0
   -7.4182    3.1520   -7.4068 H   0  0  0  0  0  0  0  0  0  0  0  0
   -8.0034    4.8267   -7.5087 H   0  0  0  0  0  0  0  0  0  0  0  0
   -8.4755    3.7771   -6.1531 H   0  0  0  0  0  0  0  0  0  0  0  0
   -7.5253    2.1964  -14.9114 H   0  0  0  0  0  0  0  0  0  0  0  0
  1  2  1  0  0  0  0
  1  4  2  0  0  0  0
  2  6  2  0  0  0  0
  3  4  1  0  0  0  0
  3  5  2  0  0  0  0
  4 11  1  0  0  0  0
  5  6  1  0  0  0  0
  5 13  1  0  0  0  0
  6 22  1  0  0  0  0
  7 18  1  0  0  0  0
  7 19  2  0  0  0  0
  7 21  1  0  0  0  0
  8  9  1  0  0  0  0
  8 11  1  0  0  0  0
  9 18  1  0  0  0  0
 10 12  1  0  0  0  0
 10 18  1  0  0  0  0
 11 12  1  0  0  0  0
 12 20  1  0  0  0  0
 14 17  1  0  0  0  0
 15 17  1  0  0  0  0
 16 17  1  0  0  0  0
 17 21  1  0  0  0  0
  1 23  1  0  0  0  0
  2 24  1  0  0  0  0
  3 25  1  0  0  0  0
  8 26  1  0  0  0  0
  8 27  1  0  0  0  0
  9 28  1  0  0  0  0
  9 29  1  0  0  0  0
 10 30  1  0  0  0  0
 10 31  1  0  0  0  0
 11 32  1  0  0  0  0
 12 33  1  0  0  0  0
 13 34  1  0  0  0  0
 13 35  1  0  0  0  0
 13 36  1  0  0  0  0
 14 37  1  0  0  0  0
 14 38  1  0  0  0  0
 14 39  1  0  0  0  0
 15 40  1  0  0  0  0
 15 41  1  0  0  0  0
 15 42  1  0  0  0  0
 16 43  1  0  0  0  0
 16 44  1  0  0  0  0
 16 45  1  0  0  0  0
 20 46  1  0  0  0  0
M  END
> <id>
EN300-94567

> <smiles>
CC=1C=C(C=CC1F)C2CCN(CC2O)C(=O)OC(C)(C)C

> <MDLNUMBER>
MFCD20502207

> <IUPAC Name>
tert-butyl 4-(4-fluoro-3-methylphenyl)-3-hydroxypiperidine-1-carboxylate

> <CAS>
1354953-31-3

> <URL>
https://www.enaminestore.com/catalog/EN300-94567

> <ROCS_ShapeQuery>
_x0404_0B

> <ROCS_TanimotoCombo>
0.440 

> <ROCS_ShapeTanimoto>
0.350 

> <ROCS_ColorTanimoto>
0.090 

> <ROCS_RefTversky>
0.308 

> <ROCS_RefColorTversky>
0.094 

> <ROCS_RefTverskyCombo>
0.402 

> <ROCS_FitTversky>
1.623 

> <ROCS_FitColorTversky>
0.714 

> <ROCS_FitTverskyCombo>
2.336 

> <ROCS_ColorScore>
-6.768

> <ROCS_Overlap>
2056.954

> <ROCS_Rank>
213                 

$$$$
untitled-dbase-37096_1713
  -OEChem-08222312023D

 61 63  0     1  0  0  0  0  0999 V2000
   -9.1152    3.7879   -9.8333 C   0  0  0  0  0  0  0  0  0  0  0  0
   -9.1256    5.3498   -7.9973 C   0  0  0  0  0  0  0  0  0  0  0  0
   -9.2214    4.0436   -8.4676 C   0  0  0  0  0  0  0  0  0  0  0  0
   -8.8160    6.1575  -10.2733 C   0  0  0  0  0  0  0  0  0  0  0  0
   -8.9219    4.8393  -10.7356 C   0  0  0  0  0  0  0  0  0  0  0  0
   -8.9211    6.3994   -8.8933 C   0  0  0  0  0  0  0  0  0  0  0  0
   -9.4156    2.9458   -7.5334 C   0  0  0  0  0  0  0  0  0  0  0  0
   -8.8097    5.6452  -16.7198 C   0  0  0  0  0  0  0  0  0  0  0  0
  -10.4074    5.7334  -13.3925 C   0  0  0  0  0  0  0  0  0  0  0  0
   -8.1518    6.7794  -12.5913 C   0  0  0  0  0  0  0  0  0  0  0  0
  -10.3607    6.2496  -14.8212 C   0  0  0  0  0  0  0  0  0  0  0  0
   -8.3639    4.9940  -14.3527 C   0  0  0  0  0  0  0  0  0  0  0  0
   -8.5782    7.3092  -11.2179 C   0  0  1  0  0  0  0  0  0  0  0  0
   -8.9268    5.5196  -13.0181 C   0  0  2  0  0  0  0  0  0  0  0  0
   -9.7269    1.2070   -5.2679 C   0  0  0  0  0  0  0  0  0  0  0  0
  -10.2304    3.2996   -3.9730 C   0  0  0  0  0  0  0  0  0  0  0  0
  -11.7340    2.6050   -5.8611 C   0  0  0  0  0  0  0  0  0  0  0  0
   -6.4844    6.9140  -17.7936 C   0  0  0  0  0  0  0  0  0  0  0  0
   -5.5861    4.5893  -18.1065 C   0  0  0  0  0  0  0  0  0  0  0  0
   -7.6650    5.3010  -19.3230 C   0  0  0  0  0  0  0  0  0  0  0  0
  -10.2976    2.6226   -5.3402 C   0  0  0  0  0  0  0  0  0  0  0  0
   -6.8457    5.4503  -18.0418 C   0  0  0  0  0  0  0  0  0  0  0  0
   -9.1664    5.6359  -15.3824 N   0  0  0  0  0  0  0  0  0  0  0  0
   -9.7563    8.1712  -11.3281 N   0  0  0  0  0  0  0  0  0  0  0  0
   -9.4981    1.7543   -7.8602 O   0  0  0  0  0  0  0  0  0  0  0  0
   -9.4697    6.1815  -17.6069 O   0  0  0  0  0  0  0  0  0  0  0  0
   -8.8115    4.4725  -12.0501 O   0  0  0  0  0  0  0  0  0  0  0  0
   -9.4950    3.3918   -6.2424 O   0  0  0  0  0  0  0  0  0  0  0  0
   -7.6323    4.9820  -16.9406 O   0  0  0  0  0  0  0  0  0  0  0  0
   -8.8156    7.6448   -8.4083 F   0  0  0  0  0  0  0  0  0  0  0  0
   -9.1701    2.7647  -10.2006 H   0  0  0  0  0  0  0  0  0  0  0  0
   -9.2052    5.5640   -6.9353 H   0  0  0  0  0  0  0  0  0  0  0  0
  -10.8698    6.4903  -12.7433 H   0  0  0  0  0  0  0  0  0  0  0  0
  -10.9964    4.8095  -13.3264 H   0  0  0  0  0  0  0  0  0  0  0  0
   -8.3208    7.5604  -13.3604 H   0  0  0  0  0  0  0  0  0  0  0  0
   -7.0623    6.5827  -12.5983 H   0  0  0  0  0  0  0  0  0  0  0  0
  -11.2181    5.9037  -15.4064 H   0  0  0  0  0  0  0  0  0  0  0  0
  -10.3036    7.3388  -14.8856 H   0  0  0  0  0  0  0  0  0  0  0  0
   -7.3237    5.3058  -14.5125 H   0  0  0  0  0  0  0  0  0  0  0  0
   -8.4319    3.9055  -14.4633 H   0  0  0  0  0  0  0  0  0  0  0  0
   -7.7611    7.9089  -10.7828 H   0  0  0  0  0  0  0  0  0  0  0  0
   -9.7734    0.7176   -6.2473 H   0  0  0  0  0  0  0  0  0  0  0  0
   -8.6858    1.2086   -4.9290 H   0  0  0  0  0  0  0  0  0  0  0  0
  -10.3129    0.5837   -4.5828 H   0  0  0  0  0  0  0  0  0  0  0  0
  -10.6388    4.3156   -4.0202 H   0  0  0  0  0  0  0  0  0  0  0  0
   -9.1917    3.3998   -3.6377 H   0  0  0  0  0  0  0  0  0  0  0  0
  -10.7864    2.7373   -3.2159 H   0  0  0  0  0  0  0  0  0  0  0  0
  -12.1436    3.6203   -5.9130 H   0  0  0  0  0  0  0  0  0  0  0  0
  -11.7962    2.1558   -6.8576 H   0  0  0  0  0  0  0  0  0  0  0  0
  -12.3871    2.0424   -5.1841 H   0  0  0  0  0  0  0  0  0  0  0  0
   -7.3859    7.5354  -17.7465 H   0  0  0  0  0  0  0  0  0  0  0  0
   -5.9267    7.0391  -16.8597 H   0  0  0  0  0  0  0  0  0  0  0  0
   -5.8775    7.3117  -18.6150 H   0  0  0  0  0  0  0  0  0  0  0  0
   -5.8406    3.5382  -18.2845 H   0  0  0  0  0  0  0  0  0  0  0  0
   -5.0440    4.6186  -17.1544 H   0  0  0  0  0  0  0  0  0  0  0  0
   -4.9100    4.9216  -18.9009 H   0  0  0  0  0  0  0  0  0  0  0  0
   -7.9243    4.2512  -19.5013 H   0  0  0  0  0  0  0  0  0  0  0  0
   -8.5912    5.8832  -19.2796 H   0  0  0  0  0  0  0  0  0  0  0  0
   -7.0878    5.6293  -20.1950 H   0  0  0  0  0  0  0  0  0  0  0  0
   -9.9907    8.4850  -10.4181 H   0  0  0  0  0  0  0  0  0  0  0  0
   -9.5221    8.9328  -11.9169 H   0  0  0  0  0  0  0  0  0  0  0  0
  1  3  1  0  0  0  0
  1  5  2  0  0  0  0
  2  3  2  0  0  0  0
  2  6  1  0  0  0  0
  3  7  1  0  0  0  0
  4  5  1  0  0  0  0
  4  6  2  0  0  0  0
  4 13  1  0  0  0  0
  5 27  1  0  0  0  0
  6 30  1  0  0  0  0
  7 25  2  0  0  0  0
  7 28  1  0  0  0  0
  8 23  1  0  0  0  0
  8 26  2  0  0  0  0
  8 29  1  0  0  0  0
  9 11  1  0  0  0  0
  9 14  1  0  0  0  0
 10 13  1  0  0  0  0
 10 14  1  0  0  0  0
 11 23  1  0  0  0  0
 12 14  1  0  0  0  0
 12 23  1  0  0  0  0
 13 24  1  0  0  0  0
 14 27  1  0  0  0  0
 15 21  1  0  0  0  0
 16 21  1  0  0  0  0
 17 21  1  0  0  0  0
 18 22  1  0  0  0  0
 19 22  1  0  0  0  0
 20 22  1  0  0  0  0
 21 28  1  0  0  0  0
 22 29  1  0  0  0  0
  1 31  1  0  0  0  0
  2 32  1  0  0  0  0
  9 33  1  0  0  0  0
  9 34  1  0  0  0  0
 10 35  1  0  0  0  0
 10 36  1  0  0  0  0
 11 37  1  0  0  0  0
 11 38  1  0  0  0  0
 12 39  1  0  0  0  0
 12 40  1  0  0  0  0
 13 41  1  0  0  0  0
 15 42  1  0  0  0  0
 15 43  1  0  0  0  0
 15 44  1  0  0  0  0
 16 45  1  0  0  0  0
 16 46  1  0  0  0  0
 16 47  1  0  0  0  0
 17 48  1  0  0  0  0
 17 49  1  0  0  0  0
 17 50  1  0  0  0  0
 18 51  1  0  0  0  0
 18 52  1  0  0  0  0
 18 53  1  0  0  0  0
 19 54  1  0  0  0  0
 19 55  1  0  0  0  0
 19 56  1  0  0  0  0
 20 57  1  0  0  0  0
 20 58  1  0  0  0  0
 20 59  1  0  0  0  0
 24 60  1  0  0  0  0
 24 61  1  0  0  0  0
M  END
> <id>
EN300-1129059

> <smiles>
CC(C)(C)OC(=O)N1CCC2(C1)CC(N)C=3C(F)=CC(=CC3O2)C(=O)OC(C)(C)C

> <IUPAC Name>
1',7-di-tert-butyl 4-amino-5-fluoro-3,4-dihydrospiro[1-benzopyran-2,3'-pyrrolidine]-1',7-dicarboxylate

> <CAS>
2138220-62-7

> <URL>
https://www.enaminestore.com/catalog/EN300-1129059

> <ROCS_ShapeQuery>
_x0404_0B

> <ROCS_TanimotoCombo>
0.440 

> <ROCS_ShapeTanimoto>
0.399 

> <ROCS_ColorTanimoto>
0.041 

> <ROCS_RefTversky>
0.355 

> <ROCS_RefColorTversky>
0.047 

> <ROCS_RefTverskyCombo>
0.402 

> <ROCS_FitTversky>
1.447 

> <ROCS_FitColorTversky>
0.255 

> <ROCS_FitTverskyCombo>
1.702 

> <ROCS_ColorScore>
-3.390

> <ROCS_Overlap>
2376.235

> <ROCS_Rank>
214                 

$$$$
untitled-dbase-39265_806
  -OEChem-08222312023D

 64 66  0     1  0  0  0  0  0999 V2000
   -9.1176    5.3431   -7.9929 C   0  0  0  0  0  0  0  0  0  0  0  0
   -9.1070    3.7896   -9.8360 C   0  0  0  0  0  0  0  0  0  0  0  0
   -9.2104    4.0387   -8.4689 C   0  0  0  0  0  0  0  0  0  0  0  0
   -8.8168    6.1621  -10.2661 C   0  0  0  0  0  0  0  0  0  0  0  0
   -8.9189    6.3974   -8.8847 C   0  0  0  0  0  0  0  0  0  0  0  0
   -8.9196    4.8457  -10.7341 C   0  0  0  0  0  0  0  0  0  0  0  0
   -9.3965    2.9350   -7.5402 C   0  0  0  0  0  0  0  0  0  0  0  0
   -8.8261    5.6790  -16.7148 C   0  0  0  0  0  0  0  0  0  0  0  0
  -10.4151    5.7469  -13.3829 C   0  0  0  0  0  0  0  0  0  0  0  0
   -8.1608    6.7966  -12.5830 C   0  0  0  0  0  0  0  0  0  0  0  0
  -10.3740    6.2698  -14.8094 C   0  0  0  0  0  0  0  0  0  0  0  0
   -8.3718    5.0186  -14.3520 C   0  0  0  0  0  0  0  0  0  0  0  0
   -8.5852    7.3188  -11.2061 C   0  0  1  0  0  0  0  0  0  0  0  0
   -8.9329    5.5363  -13.0135 C   0  0  2  0  0  0  0  0  0  0  0  0
   -8.7796    7.7637   -8.2911 C   0  0  0  0  0  0  0  0  0  0  0  0
  -10.8452    1.5713   -5.4678 C   0  0  0  0  0  0  0  0  0  0  0  0
  -10.4914    3.6565   -4.1128 C   0  0  0  0  0  0  0  0  0  0  0  0
  -11.8283    3.7569   -6.2366 C   0  0  0  0  0  0  0  0  0  0  0  0
   -7.0031    6.4179  -18.7887 C   0  0  0  0  0  0  0  0  0  0  0  0
   -5.8806    4.2176  -18.3327 C   0  0  0  0  0  0  0  0  0  0  0  0
   -8.2583    4.2649  -19.1404 C   0  0  0  0  0  0  0  0  0  0  0  0
  -10.6570    3.0867   -5.5200 C   0  0  0  0  0  0  0  0  0  0  0  0
   -7.2017    4.9830  -18.3022 C   0  0  0  0  0  0  0  0  0  0  0  0
   -9.1792    5.6624  -15.3766 N   0  0  0  0  0  0  0  0  0  0  0  0
   -9.7665    8.1775  -11.3092 N   0  0  0  0  0  0  0  0  0  0  0  0
   -9.4891    1.7463   -7.8743 O   0  0  0  0  0  0  0  0  0  0  0  0
   -9.4903    6.2172  -17.5977 O   0  0  0  0  0  0  0  0  0  0  0  0
   -8.8115    4.4852  -12.0505 O   0  0  0  0  0  0  0  0  0  0  0  0
   -9.4557    3.3718   -6.2448 O   0  0  0  0  0  0  0  0  0  0  0  0
   -7.6471    5.0207  -16.9418 O   0  0  0  0  0  0  0  0  0  0  0  0
   -9.1918    5.5382   -6.9259 H   0  0  0  0  0  0  0  0  0  0  0  0
   -9.1582    2.7677  -10.2078 H   0  0  0  0  0  0  0  0  0  0  0  0
  -10.8778    6.5002  -12.7291 H   0  0  0  0  0  0  0  0  0  0  0  0
  -11.0012    4.8212  -13.3187 H   0  0  0  0  0  0  0  0  0  0  0  0
   -8.3347    7.5785  -13.3504 H   0  0  0  0  0  0  0  0  0  0  0  0
   -7.0707    6.6024  -12.5940 H   0  0  0  0  0  0  0  0  0  0  0  0
  -11.2318    5.9239  -15.3943 H   0  0  0  0  0  0  0  0  0  0  0  0
  -10.3206    7.3593  -14.8687 H   0  0  0  0  0  0  0  0  0  0  0  0
   -7.3331    5.3348  -14.5127 H   0  0  0  0  0  0  0  0  0  0  0  0
   -8.4361    3.9302  -14.4676 H   0  0  0  0  0  0  0  0  0  0  0  0
   -7.7657    7.9186  -10.7660 H   0  0  0  0  0  0  0  0  0  0  0  0
   -7.7273    7.9740   -8.0729 H   0  0  0  0  0  0  0  0  0  0  0  0
   -9.1575    8.5306   -8.9765 H   0  0  0  0  0  0  0  0  0  0  0  0
   -9.3559    7.8492   -7.3629 H   0  0  0  0  0  0  0  0  0  0  0  0
  -10.9645    1.1585   -6.4759 H   0  0  0  0  0  0  0  0  0  0  0  0
   -9.9955    1.0755   -4.9873 H   0  0  0  0  0  0  0  0  0  0  0  0
  -11.7557    1.3091   -4.9168 H   0  0  0  0  0  0  0  0  0  0  0  0
  -10.3560    4.7436   -4.1455 H   0  0  0  0  0  0  0  0  0  0  0  0
   -9.5964    3.2484   -3.6293 H   0  0  0  0  0  0  0  0  0  0  0  0
  -11.3582    3.4339   -3.4822 H   0  0  0  0  0  0  0  0  0  0  0  0
  -11.6935    4.8440   -6.2742 H   0  0  0  0  0  0  0  0  0  0  0  0
  -11.9394    3.3869   -7.2610 H   0  0  0  0  0  0  0  0  0  0  0  0
  -12.7668    3.5802   -5.6988 H   0  0  0  0  0  0  0  0  0  0  0  0
   -7.9491    6.9707  -18.7683 H   0  0  0  0  0  0  0  0  0  0  0  0
   -6.2733    6.9548  -18.1740 H   0  0  0  0  0  0  0  0  0  0  0  0
   -6.6581    6.4339  -19.8289 H   0  0  0  0  0  0  0  0  0  0  0  0
   -6.0184    3.1875  -17.9845 H   0  0  0  0  0  0  0  0  0  0  0  0
   -5.1482    4.6760  -17.6584 H   0  0  0  0  0  0  0  0  0  0  0  0
   -5.4536    4.1887  -19.3404 H   0  0  0  0  0  0  0  0  0  0  0  0
   -8.4009    3.2357  -18.7917 H   0  0  0  0  0  0  0  0  0  0  0  0
   -9.2234    4.7801  -19.1005 H   0  0  0  0  0  0  0  0  0  0  0  0
   -7.9436    4.1956  -20.1880 H   0  0  0  0  0  0  0  0  0  0  0  0
  -10.0000    8.4832  -10.3967 H   0  0  0  0  0  0  0  0  0  0  0  0
   -9.5343    8.9432  -11.8927 H   0  0  0  0  0  0  0  0  0  0  0  0
  1  3  1  0  0  0  0
  1  5  2  0  0  0  0
  2  3  2  0  0  0  0
  2  6  1  0  0  0  0
  3  7  1  0  0  0  0
  4  5  1  0  0  0  0
  4  6  2  0  0  0  0
  4 13  1  0  0  0  0
  5 15  1  0  0  0  0
  6 28  1  0  0  0  0
  7 26  2  0  0  0  0
  7 29  1  0  0  0  0
  8 24  1  0  0  0  0
  8 27  2  0  0  0  0
  8 30  1  0  0  0  0
  9 11  1  0  0  0  0
  9 14  1  0  0  0  0
 10 13  1  0  0  0  0
 10 14  1  0  0  0  0
 11 24  1  0  0  0  0
 12 14  1  0  0  0  0
 12 24  1  0  0  0  0
 13 25  1  0  0  0  0
 14 28  1  0  0  0  0
 16 22  1  0  0  0  0
 17 22  1  0  0  0  0
 18 22  1  0  0  0  0
 19 23  1  0  0  0  0
 20 23  1  0  0  0  0
 21 23  1  0  0  0  0
 22 29  1  0  0  0  0
 23 30  1  0  0  0  0
  1 31  1  0  0  0  0
  2 32  1  0  0  0  0
  9 33  1  0  0  0  0
  9 34  1  0  0  0  0
 10 35  1  0  0  0  0
 10 36  1  0  0  0  0
 11 37  1  0  0  0  0
 11 38  1  0  0  0  0
 12 39  1  0  0  0  0
 12 40  1  0  0  0  0
 13 41  1  0  0  0  0
 15 42  1  0  0  0  0
 15 43  1  0  0  0  0
 15 44  1  0  0  0  0
 16 45  1  0  0  0  0
 16 46  1  0  0  0  0
 16 47  1  0  0  0  0
 17 48  1  0  0  0  0
 17 49  1  0  0  0  0
 17 50  1  0  0  0  0
 18 51  1  0  0  0  0
 18 52  1  0  0  0  0
 18 53  1  0  0  0  0
 19 54  1  0  0  0  0
 19 55  1  0  0  0  0
 19 56  1  0  0  0  0
 20 57  1  0  0  0  0
 20 58  1  0  0  0  0
 20 59  1  0  0  0  0
 21 60  1  0  0  0  0
 21 61  1  0  0  0  0
 21 62  1  0  0  0  0
 25 63  1  0  0  0  0
 25 64  1  0  0  0  0
M  END
> <id>
EN300-1129060

> <smiles>
CC=1C=C(C=C2OC3(CCN(C3)C(=O)OC(C)(C)C)CC(N)C12)C(=O)OC(C)(C)C

> <IUPAC Name>
1',7-di-tert-butyl 4-amino-5-methyl-3,4-dihydrospiro[1-benzopyran-2,3'-pyrrolidine]-1',7-dicarboxylate

> <CAS>
2138207-15-3

> <URL>
https://www.enaminestore.com/catalog/EN300-1129060

> <ROCS_ShapeQuery>
_x0404_0B

> <ROCS_TanimotoCombo>
0.440 

> <ROCS_ShapeTanimoto>
0.399 

> <ROCS_ColorTanimoto>
0.041 

> <ROCS_RefTversky>
0.355 

> <ROCS_RefColorTversky>
0.047 

> <ROCS_RefTverskyCombo>
0.402 

> <ROCS_FitTversky>
1.452 

> <ROCS_FitColorTversky>
0.255 

> <ROCS_FitTverskyCombo>
1.708 

> <ROCS_ColorScore>
-3.392

> <ROCS_Overlap>
2373.688

> <ROCS_Rank>
215                 

$$$$
untitled-dbase-91477_1957
  -OEChem-08222312023D

 52 54  0     0  0  0  0  0  0999 V2000
   -9.0495    4.6789   -7.7043 C   0  0  0  0  0  0  0  0  0  0  0  0
   -9.3651    3.6955   -6.7734 C   0  0  0  0  0  0  0  0  0  0  0  0
   -8.9817    2.9952   -9.3827 C   0  0  0  0  0  0  0  0  0  0  0  0
   -8.8526    4.3304   -9.0359 C   0  0  0  0  0  0  0  0  0  0  0  0
   -9.4715    2.3887   -7.2216 C   0  0  0  0  0  0  0  0  0  0  0  0
   -8.3122    5.2691  -16.6316 C   0  0  0  0  0  0  0  0  0  0  0  0
   -7.6381    4.8025  -11.2282 C   0  0  0  0  0  0  0  0  0  0  0  0
   -9.7811    6.0826  -10.6277 C   0  0  0  0  0  0  0  0  0  0  0  0
   -7.6182    5.7415  -12.4361 C   0  0  0  0  0  0  0  0  0  0  0  0
  -10.1498    5.6255  -12.0382 C   0  0  0  0  0  0  0  0  0  0  0  0
   -9.1645    7.3296  -13.6802 C   0  0  0  0  0  0  0  0  0  0  0  0
   -8.4517    7.2090  -15.0206 C   0  0  0  0  0  0  0  0  0  0  0  0
   -9.1926    5.0322  -14.3083 C   0  0  0  0  0  0  0  0  0  0  0  0
   -8.5046    5.3896  -10.0858 C   0  0  0  0  0  0  0  0  0  0  0  0
   -9.0311    5.9189  -13.0575 C   0  0  0  0  0  0  0  0  0  0  0  0
   -7.5537    4.6674  -19.3203 C   0  0  0  0  0  0  0  0  0  0  0  0
   -6.4150    6.9062  -19.3052 C   0  0  0  0  0  0  0  0  0  0  0  0
   -5.6661    5.1115  -17.7159 C   0  0  0  0  0  0  0  0  0  0  0  0
   -6.8581    5.7174  -18.4552 C   0  0  0  0  0  0  0  0  0  0  0  0
   -9.2872    2.0118   -8.5068 N   0  0  0  0  0  0  0  0  0  0  0  0
   -8.6289    5.8143  -15.3994 N   0  0  0  0  0  0  0  0  0  0  0  0
   -8.4722    4.0866  -16.9252 O   0  0  0  0  0  0  0  0  0  0  0  0
   -7.7314    6.4450   -9.4843 O   0  0  0  0  0  0  0  0  0  0  0  0
   -7.7951    6.2042  -17.4879 O   0  0  0  0  0  0  0  0  0  0  0  0
   -9.9009    1.0295   -5.9667 Br  0  0  0  0  0  0  0  0  0  0  0  0
   -8.9594    5.7133   -7.3835 H   0  0  0  0  0  0  0  0  0  0  0  0
   -9.5194    3.9630   -5.7336 H   0  0  0  0  0  0  0  0  0  0  0  0
   -8.8405    2.6642  -10.4070 H   0  0  0  0  0  0  0  0  0  0  0  0
   -8.0279    3.8351  -11.5292 H   0  0  0  0  0  0  0  0  0  0  0  0
   -6.6175    4.6615  -10.8825 H   0  0  0  0  0  0  0  0  0  0  0  0
   -9.6329    7.1687  -10.6434 H   0  0  0  0  0  0  0  0  0  0  0  0
  -10.6242    5.8850   -9.9554 H   0  0  0  0  0  0  0  0  0  0  0  0
   -7.2414    6.7160  -12.1208 H   0  0  0  0  0  0  0  0  0  0  0  0
   -6.9148    5.3535  -13.1729 H   0  0  0  0  0  0  0  0  0  0  0  0
  -10.3745    4.5535  -12.0186 H   0  0  0  0  0  0  0  0  0  0  0  0
  -11.0709    6.1264  -12.3554 H   0  0  0  0  0  0  0  0  0  0  0  0
   -8.7333    8.1157  -13.0553 H   0  0  0  0  0  0  0  0  0  0  0  0
  -10.2190    7.5738  -13.8524 H   0  0  0  0  0  0  0  0  0  0  0  0
   -8.8685    7.8727  -15.7826 H   0  0  0  0  0  0  0  0  0  0  0  0
   -7.3784    7.4024  -14.9314 H   0  0  0  0  0  0  0  0  0  0  0  0
   -8.6989    4.0585  -14.2474 H   0  0  0  0  0  0  0  0  0  0  0  0
  -10.2473    4.8616  -14.5551 H   0  0  0  0  0  0  0  0  0  0  0  0
   -7.8733    3.8124  -18.7139 H   0  0  0  0  0  0  0  0  0  0  0  0
   -8.4310    5.0805  -19.8288 H   0  0  0  0  0  0  0  0  0  0  0  0
   -6.8695    4.2699  -20.0787 H   0  0  0  0  0  0  0  0  0  0  0  0
   -5.9154    7.6621  -18.6886 H   0  0  0  0  0  0  0  0  0  0  0  0
   -7.2786    7.4026  -19.7626 H   0  0  0  0  0  0  0  0  0  0  0  0
   -5.7291    6.6001  -20.1017 H   0  0  0  0  0  0  0  0  0  0  0  0
   -5.1670    5.8644  -17.0952 H   0  0  0  0  0  0  0  0  0  0  0  0
   -5.9710    4.2800  -17.0721 H   0  0  0  0  0  0  0  0  0  0  0  0
   -4.9134    4.7459  -18.4237 H   0  0  0  0  0  0  0  0  0  0  0  0
   -7.5405    7.0830  -10.1890 H   0  0  0  0  0  0  0  0  0  0  0  0
  1  2  1  0  0  0  0
  1  4  2  0  0  0  0
  2  5  2  0  0  0  0
  3  4  1  0  0  0  0
  3 20  2  0  0  0  0
  4 14  1  0  0  0  0
  5 20  1  0  0  0  0
  5 25  1  0  0  0  0
  6 21  1  0  0  0  0
  6 22  2  0  0  0  0
  6 24  1  0  0  0  0
  7  9  1  0  0  0  0
  7 14  1  0  0  0  0
  8 10  1  0  0  0  0
  8 14  1  0  0  0  0
  9 15  1  0  0  0  0
 10 15  1  0  0  0  0
 11 12  1  0  0  0  0
 11 15  1  0  0  0  0
 12 21  1  0  0  0  0
 13 15  1  0  0  0  0
 13 21  1  0  0  0  0
 14 23  1  0  0  0  0
 16 19  1  0  0  0  0
 17 19  1  0  0  0  0
 18 19  1  0  0  0  0
 19 24  1  0  0  0  0
  1 26  1  0  0  0  0
  2 27  1  0  0  0  0
  3 28  1  0  0  0  0
  7 29  1  0  0  0  0
  7 30  1  0  0  0  0
  8 31  1  0  0  0  0
  8 32  1  0  0  0  0
  9 33  1  0  0  0  0
  9 34  1  0  0  0  0
 10 35  1  0  0  0  0
 10 36  1  0  0  0  0
 11 37  1  0  0  0  0
 11 38  1  0  0  0  0
 12 39  1  0  0  0  0
 12 40  1  0  0  0  0
 13 41  1  0  0  0  0
 13 42  1  0  0  0  0
 16 43  1  0  0  0  0
 16 44  1  0  0  0  0
 16 45  1  0  0  0  0
 17 46  1  0  0  0  0
 17 47  1  0  0  0  0
 17 48  1  0  0  0  0
 18 49  1  0  0  0  0
 18 50  1  0  0  0  0
 18 51  1  0  0  0  0
 23 52  1  0  0  0  0
M  END
> <id>
EN300-7428874

> <smiles>
CC(C)(C)OC(=O)N1CCC2(C1)CCC(O)(CC2)C=3C=CC(Br)=NC3

> <IUPAC Name>
tert-butyl 8-(6-bromopyridin-3-yl)-8-hydroxy-2-azaspiro[4.5]decane-2-carboxylate

> <CAS>
2309466-12-2

> <URL>
https://www.enaminestore.com/catalog/EN300-7428874

> <ROCS_ShapeQuery>
_x0404_0B

> <ROCS_TanimotoCombo>
0.440 

> <ROCS_ShapeTanimoto>
0.384 

> <ROCS_ColorTanimoto>
0.056 

> <ROCS_RefTversky>
0.335 

> <ROCS_RefColorTversky>
0.062 

> <ROCS_RefTverskyCombo>
0.398 

> <ROCS_FitTversky>
1.603 

> <ROCS_FitColorTversky>
0.364 

> <ROCS_FitTverskyCombo>
1.967 

> <ROCS_ColorScore>
-4.491

> <ROCS_Overlap>
2240.853

> <ROCS_Rank>
216                 

$$$$
untitled-dbase-38254_971
  -OEChem-08222312023D

 47 49  0     0  0  0  0  0  0999 V2000
   -8.5510    5.7866  -14.2940 C   0  0  0  0  0  0  0  0  0  0  0  0
   -9.6200    4.6159  -18.4319 C   0  0  0  0  0  0  0  0  0  0  0  0
   -8.1177    4.8563  -18.6054 C   0  0  0  0  0  0  0  0  0  0  0  0
   -9.8782    4.6306  -16.9276 C   0  0  0  0  0  0  0  0  0  0  0  0
   -7.5485    5.0019  -17.1966 C   0  0  0  0  0  0  0  0  0  0  0  0
   -8.2349    4.0712   -8.2127 C   0  0  0  0  0  0  0  0  0  0  0  0
  -10.4774    3.8200   -9.3339 C   0  0  0  0  0  0  0  0  0  0  0  0
   -7.5681    4.2611   -9.5796 C   0  0  0  0  0  0  0  0  0  0  0  0
   -9.8160    4.0077  -10.7044 C   0  0  0  0  0  0  0  0  0  0  0  0
   -8.5748    7.2149  -12.3143 C   0  0  0  0  0  0  0  0  0  0  0  0
   -7.8214    4.8920  -12.0103 C   0  0  0  0  0  0  0  0  0  0  0  0
   -8.2545    7.2343  -10.8281 C   0  0  0  0  0  0  0  0  0  0  0  0
   -9.5196    3.2390   -8.2879 C   0  0  0  0  0  0  0  0  0  0  0  0
   -8.5353    4.2308  -16.3284 C   0  0  0  0  0  0  0  0  0  0  0  0
   -8.5285    4.8529  -10.6326 C   0  0  0  0  0  0  0  0  0  0  0  0
   -8.4170    5.8855  -12.9084 N   0  0  0  0  0  0  0  0  0  0  0  0
   -9.2028    1.8455   -8.6086 N   0  0  0  0  0  0  0  0  0  0  0  0
   -8.4262    4.5670  -14.9201 N   0  0  0  0  0  0  0  0  0  0  0  0
   -8.7933    6.7801  -14.9952 O   0  0  0  0  0  0  0  0  0  0  0  0
   -8.9275    6.1626  -10.1823 O   0  0  0  0  0  0  0  0  0  0  0  0
  -10.2167    5.3763  -18.9457 H   0  0  0  0  0  0  0  0  0  0  0  0
   -9.8914    3.6422  -18.8561 H   0  0  0  0  0  0  0  0  0  0  0  0
   -7.6610    3.9999  -19.1149 H   0  0  0  0  0  0  0  0  0  0  0  0
   -7.9148    5.7451  -19.2113 H   0  0  0  0  0  0  0  0  0  0  0  0
  -10.1614    5.6436  -16.6147 H   0  0  0  0  0  0  0  0  0  0  0  0
  -10.6857    3.9490  -16.6430 H   0  0  0  0  0  0  0  0  0  0  0  0
   -6.5283    4.6128  -17.1233 H   0  0  0  0  0  0  0  0  0  0  0  0
   -7.5283    6.0637  -16.9201 H   0  0  0  0  0  0  0  0  0  0  0  0
   -7.5209    3.6075   -7.5207 H   0  0  0  0  0  0  0  0  0  0  0  0
   -8.4736    5.0550   -7.7884 H   0  0  0  0  0  0  0  0  0  0  0  0
  -10.8511    4.7891   -8.9781 H   0  0  0  0  0  0  0  0  0  0  0  0
  -11.3595    3.1757   -9.4417 H   0  0  0  0  0  0  0  0  0  0  0  0
   -6.7091    4.9329   -9.4421 H   0  0  0  0  0  0  0  0  0  0  0  0
   -7.1651    3.3015   -9.9310 H   0  0  0  0  0  0  0  0  0  0  0  0
   -9.5906    3.0227  -11.1394 H   0  0  0  0  0  0  0  0  0  0  0  0
  -10.5560    4.4628  -11.3763 H   0  0  0  0  0  0  0  0  0  0  0  0
   -9.5858    7.6239  -12.4585 H   0  0  0  0  0  0  0  0  0  0  0  0
   -7.8799    7.8792  -12.8593 H   0  0  0  0  0  0  0  0  0  0  0  0
   -6.7731    5.1967  -11.8847 H   0  0  0  0  0  0  0  0  0  0  0  0
   -7.8124    3.8961  -12.4692 H   0  0  0  0  0  0  0  0  0  0  0  0
   -7.1878    7.0845  -10.6852 H   0  0  0  0  0  0  0  0  0  0  0  0
   -8.5216    8.1823  -10.3725 H   0  0  0  0  0  0  0  0  0  0  0  0
  -10.0062    3.2475   -7.3181 H   0  0  0  0  0  0  0  0  0  0  0  0
   -8.3724    3.1543  -16.4269 H   0  0  0  0  0  0  0  0  0  0  0  0
   -9.6730    1.6103   -9.4487 H   0  0  0  0  0  0  0  0  0  0  0  0
   -8.2207    1.7734   -8.7203 H   0  0  0  0  0  0  0  0  0  0  0  0
   -8.2175    3.7404  -14.2755 H   0  0  0  0  0  0  0  0  0  0  0  0
  1 16  1  0  0  0  0
  1 18  1  0  0  0  0
  1 19  2  0  0  0  0
  2  3  1  0  0  0  0
  2  4  1  0  0  0  0
  3  5  1  0  0  0  0
  4 14  1  0  0  0  0
  5 14  1  0  0  0  0
  6  8  1  0  0  0  0
  6 13  1  0  0  0  0
  7  9  1  0  0  0  0
  7 13  1  0  0  0  0
  8 15  1  6  0  0  0
  9 15  1  0  0  0  0
 10 12  1  0  0  0  0
 10 16  1  0  0  0  0
 11 15  1  0  0  0  0
 11 16  1  0  0  0  0
 12 20  1  0  0  0  0
 13 17  1  1  0  0  0
 14 18  1  0  0  0  0
 15 20  1  0  0  0  0
  2 21  1  0  0  0  0
  2 22  1  0  0  0  0
  3 23  1  0  0  0  0
  3 24  1  0  0  0  0
  4 25  1  0  0  0  0
  4 26  1  0  0  0  0
  5 27  1  0  0  0  0
  5 28  1  0  0  0  0
  6 29  1  0  0  0  0
  6 30  1  0  0  0  0
  7 31  1  0  0  0  0
  7 32  1  0  0  0  0
  8 33  1  0  0  0  0
  8 34  1  0  0  0  0
  9 35  1  0  0  0  0
  9 36  1  0  0  0  0
 10 37  1  0  0  0  0
 10 38  1  0  0  0  0
 11 39  1  0  0  0  0
 11 40  1  0  0  0  0
 12 41  1  0  0  0  0
 12 42  1  0  0  0  0
 13 43  1  0  0  0  0
 14 44  1  0  0  0  0
 17 45  1  0  0  0  0
 17 46  1  0  0  0  0
 18 47  1  0  0  0  0
M  END
> <id>
EN300-1084980

> <smiles>
N[C@H]1CC[C@]2(CC1)CN(CCO2)C(=O)NC3CCCC3

> <IUPAC Name>
(6r,9r)-9-amino-N-cyclopentyl-1-oxa-4-azaspiro[5.5]undecane-4-carboxamide

> <CAS>
2137068-60-9

> <URL>
https://www.enaminestore.com/catalog/EN300-1084980

> <ROCS_ShapeQuery>
_x0404_0B

> <ROCS_TanimotoCombo>
0.440 

> <ROCS_ShapeTanimoto>
0.334 

> <ROCS_ColorTanimoto>
0.106 

> <ROCS_RefTversky>
0.294 

> <ROCS_RefColorTversky>
0.111 

> <ROCS_RefTverskyCombo>
0.406 

> <ROCS_FitTversky>
1.666 

> <ROCS_FitColorTversky>
0.706 

> <ROCS_FitTverskyCombo>
2.371 

> <ROCS_ColorScore>
-8.034

> <ROCS_Overlap>
1963.066

> <ROCS_Rank>
217                 

$$$$
untitled-dbase-168841_546
  -OEChem-08222312023D

 53 55  0     0  0  0  0  0  0999 V2000
   -9.1714    3.7156  -15.6940 C   0  0  0  0  0  0  0  0  0  0  0  0
   -9.4020    4.4329  -16.8627 C   0  0  0  0  0  0  0  0  0  0  0  0
   -7.4901    5.2959  -15.1176 C   0  0  0  0  0  0  0  0  0  0  0  0
   -8.1990    4.1487  -14.7996 C   0  0  0  0  0  0  0  0  0  0  0  0
   -8.6394    5.5675  -17.0882 C   0  0  0  0  0  0  0  0  0  0  0  0
   -9.6051    3.1217   -8.1147 C   0  0  0  0  0  0  0  0  0  0  0  0
   -6.8042    4.0308  -12.6532 C   0  0  0  0  0  0  0  0  0  0  0  0
   -9.1339    3.1220  -12.5786 C   0  0  0  0  0  0  0  0  0  0  0  0
   -7.2730    5.2940  -11.9355 C   0  0  0  0  0  0  0  0  0  0  0  0
   -9.6029    4.3573  -11.8027 C   0  0  0  0  0  0  0  0  0  0  0  0
   -9.5500    5.5905   -8.3652 C   0  0  0  0  0  0  0  0  0  0  0  0
   -8.0438    4.2417   -9.7634 C   0  0  0  0  0  0  0  0  0  0  0  0
   -9.9465    6.3722   -9.6070 C   0  0  0  0  0  0  0  0  0  0  0  0
   -7.9210    3.3814  -13.5029 C   0  0  0  0  0  0  0  0  0  0  0  0
   -8.4784    5.0523  -11.0043 C   0  0  0  0  0  0  0  0  0  0  0  0
   -9.9941    1.5469   -5.7573 C   0  0  0  0  0  0  0  0  0  0  0  0
  -12.1109    2.8640   -5.4510 C   0  0  0  0  0  0  0  0  0  0  0  0
  -11.8219    1.4158   -7.4826 C   0  0  0  0  0  0  0  0  0  0  0  0
  -11.1133    2.3091   -6.4654 C   0  0  0  0  0  0  0  0  0  0  0  0
   -7.6860    6.0191  -16.2429 N   0  0  0  0  0  0  0  0  0  0  0  0
   -9.0911    4.2589   -8.7393 N   0  0  0  0  0  0  0  0  0  0  0  0
   -9.2630    1.9711   -8.3812 O   0  0  0  0  0  0  0  0  0  0  0  0
   -8.8985    6.3662  -10.5771 O   0  0  0  0  0  0  0  0  0  0  0  0
   -7.4339    2.0867  -13.9000 O   0  0  0  0  0  0  0  0  0  0  0  0
  -10.5385    3.4224   -7.1587 O   0  0  0  0  0  0  0  0  0  0  0  0
   -8.9374    6.5616  -18.6787 Br  0  0  0  0  0  0  0  0  0  0  0  0
   -9.7539    2.8215  -15.4886 H   0  0  0  0  0  0  0  0  0  0  0  0
  -10.1597    4.0985  -17.5633 H   0  0  0  0  0  0  0  0  0  0  0  0
   -6.7199    5.6821  -14.4570 H   0  0  0  0  0  0  0  0  0  0  0  0
   -5.9474    4.2784  -13.2911 H   0  0  0  0  0  0  0  0  0  0  0  0
   -6.4478    3.3167  -11.9016 H   0  0  0  0  0  0  0  0  0  0  0  0
   -8.8859    2.3320  -11.8525 H   0  0  0  0  0  0  0  0  0  0  0  0
   -9.9774    2.7377  -13.1742 H   0  0  0  0  0  0  0  0  0  0  0  0
   -6.4365    5.7141  -11.3525 H   0  0  0  0  0  0  0  0  0  0  0  0
   -7.5058    6.0534  -12.6975 H   0  0  0  0  0  0  0  0  0  0  0  0
  -10.0356    5.0656  -12.5288 H   0  0  0  0  0  0  0  0  0  0  0  0
  -10.4236    4.0729  -11.1239 H   0  0  0  0  0  0  0  0  0  0  0  0
   -8.7971    6.1407   -7.7948 H   0  0  0  0  0  0  0  0  0  0  0  0
  -10.4236    5.4471   -7.7180 H   0  0  0  0  0  0  0  0  0  0  0  0
   -7.9031    3.1875  -10.0273 H   0  0  0  0  0  0  0  0  0  0  0  0
   -7.0973    4.6126   -9.3607 H   0  0  0  0  0  0  0  0  0  0  0  0
  -10.8197    5.9039  -10.0703 H   0  0  0  0  0  0  0  0  0  0  0  0
  -10.2291    7.4000   -9.3633 H   0  0  0  0  0  0  0  0  0  0  0  0
   -9.2759    1.1470   -6.4820 H   0  0  0  0  0  0  0  0  0  0  0  0
   -9.4554    2.1862   -5.0503 H   0  0  0  0  0  0  0  0  0  0  0  0
  -10.3933    0.6853   -5.2100 H   0  0  0  0  0  0  0  0  0  0  0  0
  -12.9156    3.4116   -5.9547 H   0  0  0  0  0  0  0  0  0  0  0  0
  -11.6254    3.5793   -4.7773 H   0  0  0  0  0  0  0  0  0  0  0  0
  -12.5584    2.0679   -4.8473 H   0  0  0  0  0  0  0  0  0  0  0  0
  -12.6247    1.9622   -7.9907 H   0  0  0  0  0  0  0  0  0  0  0  0
  -11.1277    1.0380   -8.2403 H   0  0  0  0  0  0  0  0  0  0  0  0
  -12.2955    0.5606   -6.9870 H   0  0  0  0  0  0  0  0  0  0  0  0
   -7.2562    1.5964  -13.0826 H   0  0  0  0  0  0  0  0  0  0  0  0
  1  2  1  0  0  0  0
  1  4  2  0  0  0  0
  2  5  2  0  0  0  0
  3  4  1  0  0  0  0
  3 20  2  0  0  0  0
  4 14  1  0  0  0  0
  5 20  1  0  0  0  0
  5 26  1  0  0  0  0
  6 21  1  0  0  0  0
  6 22  2  0  0  0  0
  6 25  1  0  0  0  0
  7  9  1  0  0  0  0
  7 14  1  0  0  0  0
  8 10  1  0  0  0  0
  8 14  1  0  0  0  0
  9 15  1  0  0  0  0
 10 15  1  0  0  0  0
 11 13  1  0  0  0  0
 11 21  1  0  0  0  0
 12 15  1  0  0  0  0
 12 21  1  0  0  0  0
 13 23  1  0  0  0  0
 14 24  1  0  0  0  0
 15 23  1  0  0  0  0
 16 19  1  0  0  0  0
 17 19  1  0  0  0  0
 18 19  1  0  0  0  0
 19 25  1  0  0  0  0
  1 27  1  0  0  0  0
  2 28  1  0  0  0  0
  3 29  1  0  0  0  0
  7 30  1  0  0  0  0
  7 31  1  0  0  0  0
  8 32  1  0  0  0  0
  8 33  1  0  0  0  0
  9 34  1  0  0  0  0
  9 35  1  0  0  0  0
 10 36  1  0  0  0  0
 10 37  1  0  0  0  0
 11 38  1  0  0  0  0
 11 39  1  0  0  0  0
 12 40  1  0  0  0  0
 12 41  1  0  0  0  0
 13 42  1  0  0  0  0
 13 43  1  0  0  0  0
 16 44  1  0  0  0  0
 16 45  1  0  0  0  0
 16 46  1  0  0  0  0
 17 47  1  0  0  0  0
 17 48  1  0  0  0  0
 17 49  1  0  0  0  0
 18 50  1  0  0  0  0
 18 51  1  0  0  0  0
 18 52  1  0  0  0  0
 24 53  1  0  0  0  0
M  END
> <id>
EN300-7429092

> <smiles>
CC(C)(C)OC(=O)N1CCOC2(CCC(O)(CC2)C=3C=CC(Br)=NC3)C1

> <IUPAC Name>
tert-butyl 9-(6-bromopyridin-3-yl)-9-hydroxy-1-oxa-4-azaspiro[5.5]undecane-4-carboxylate

> <CAS>
2309446-33-9

> <URL>
https://www.enaminestore.com/catalog/EN300-7429092

> <ROCS_ShapeQuery>
_x0404_0B

> <ROCS_TanimotoCombo>
0.440 

> <ROCS_ShapeTanimoto>
0.318 

> <ROCS_ColorTanimoto>
0.122 

> <ROCS_RefTversky>
0.293 

> <ROCS_RefColorTversky>
0.129 

> <ROCS_RefTverskyCombo>
0.422 

> <ROCS_FitTversky>
1.358 

> <ROCS_FitColorTversky>
0.701 

> <ROCS_FitTverskyCombo>
2.059 

> <ROCS_ColorScore>
-9.304

> <ROCS_Overlap>
1960.281

> <ROCS_Rank>
218                 

$$$$
untitled-dbase-92172_1712
  -OEChem-08222312023D

 52 54  0     0  0  0  0  0  0999 V2000
  -10.3304    4.4589  -18.6972 C   0  0  0  0  0  0  0  0  0  0  0  0
  -10.1897    4.7125  -17.3374 C   0  0  0  0  0  0  0  0  0  0  0  0
   -9.1889    4.4791  -19.4822 C   0  0  0  0  0  0  0  0  0  0  0  0
   -8.9295    4.9750  -16.8115 C   0  0  0  0  0  0  0  0  0  0  0  0
   -7.8507    4.9720  -17.6810 C   0  0  0  0  0  0  0  0  0  0  0  0
   -9.4788    5.3582   -8.7911 C   0  0  0  0  0  0  0  0  0  0  0  0
  -10.1129    5.2089  -14.5149 C   0  0  0  0  0  0  0  0  0  0  0  0
   -7.7498    4.2948  -14.6880 C   0  0  0  0  0  0  0  0  0  0  0  0
   -9.9191    5.5671  -13.0338 C   0  0  0  0  0  0  0  0  0  0  0  0
   -8.1262    3.7791  -13.2943 C   0  0  0  0  0  0  0  0  0  0  0  0
   -7.6242    5.8933  -11.9511 C   0  0  0  0  0  0  0  0  0  0  0  0
   -8.1406    6.4518  -10.6307 C   0  0  0  0  0  0  0  0  0  0  0  0
   -9.0889    4.2739  -11.0045 C   0  0  0  0  0  0  0  0  0  0  0  0
   -8.7955    5.2512  -15.3137 C   0  0  0  0  0  0  0  0  0  0  0  0
   -8.7009    4.8640  -12.3755 C   0  0  0  0  0  0  0  0  0  0  0  0
   -9.0711    4.3374   -6.4133 C   0  0  0  0  0  0  0  0  0  0  0  0
  -10.9078    2.6827   -6.8578 C   0  0  0  0  0  0  0  0  0  0  0  0
   -8.6788    2.4091   -7.9824 C   0  0  0  0  0  0  0  0  0  0  0  0
   -9.7031    3.4104   -7.4505 C   0  0  0  0  0  0  0  0  0  0  0  0
   -7.9482    4.7301  -19.0075 N   0  0  0  0  0  0  0  0  0  0  0  0
   -8.9355    5.3728  -10.0641 N   0  0  0  0  0  0  0  0  0  0  0  0
   -9.3525    6.2687   -7.9754 O   0  0  0  0  0  0  0  0  0  0  0  0
   -8.2876    6.5916  -15.1803 O   0  0  0  0  0  0  0  0  0  0  0  0
  -10.1745    4.2049   -8.5446 O   0  0  0  0  0  0  0  0  0  0  0  0
   -6.0940    5.3235  -17.0300 Br  0  0  0  0  0  0  0  0  0  0  0  0
  -11.3029    4.2523  -19.1291 H   0  0  0  0  0  0  0  0  0  0  0  0
  -11.0676    4.7034  -16.6971 H   0  0  0  0  0  0  0  0  0  0  0  0
   -9.2450    4.2882  -20.5488 H   0  0  0  0  0  0  0  0  0  0  0  0
  -10.5616    4.2138  -14.5839 H   0  0  0  0  0  0  0  0  0  0  0  0
  -10.8331    5.9129  -14.9438 H   0  0  0  0  0  0  0  0  0  0  0  0
   -6.7775    4.8077  -14.6125 H   0  0  0  0  0  0  0  0  0  0  0  0
   -7.5901    3.4314  -15.3540 H   0  0  0  0  0  0  0  0  0  0  0  0
   -9.7933    6.6551  -12.9504 H   0  0  0  0  0  0  0  0  0  0  0  0
  -10.8449    5.3299  -12.4943 H   0  0  0  0  0  0  0  0  0  0  0  0
   -8.8444    2.9517  -13.4080 H   0  0  0  0  0  0  0  0  0  0  0  0
   -7.2363    3.3322  -12.8235 H   0  0  0  0  0  0  0  0  0  0  0  0
   -7.4671    6.6792  -12.6954 H   0  0  0  0  0  0  0  0  0  0  0  0
   -6.6631    5.3934  -11.7806 H   0  0  0  0  0  0  0  0  0  0  0  0
   -7.3344    6.7382   -9.9492 H   0  0  0  0  0  0  0  0  0  0  0  0
   -8.7976    7.3145  -10.7817 H   0  0  0  0  0  0  0  0  0  0  0  0
  -10.1032    3.8685  -10.9505 H   0  0  0  0  0  0  0  0  0  0  0  0
   -8.3938    3.4871  -10.6871 H   0  0  0  0  0  0  0  0  0  0  0  0
   -8.2060    4.8616   -6.8349 H   0  0  0  0  0  0  0  0  0  0  0  0
   -9.7859    5.0828   -6.0496 H   0  0  0  0  0  0  0  0  0  0  0  0
   -8.6987    3.7672   -5.5546 H   0  0  0  0  0  0  0  0  0  0  0  0
  -11.3645    2.0165   -7.5986 H   0  0  0  0  0  0  0  0  0  0  0  0
  -11.6867    3.3946   -6.5613 H   0  0  0  0  0  0  0  0  0  0  0  0
  -10.6298    2.0882   -5.9816 H   0  0  0  0  0  0  0  0  0  0  0  0
   -9.1319    1.7440   -8.7264 H   0  0  0  0  0  0  0  0  0  0  0  0
   -7.8241    2.9135   -8.4447 H   0  0  0  0  0  0  0  0  0  0  0  0
   -8.3088    1.7649   -7.1765 H   0  0  0  0  0  0  0  0  0  0  0  0
   -7.4301    6.6078  -15.6325 H   0  0  0  0  0  0  0  0  0  0  0  0
  1  2  1  0  0  0  0
  1  3  2  0  0  0  0
  2  4  2  0  0  0  0
  3 20  1  0  0  0  0
  4  5  1  0  0  0  0
  4 14  1  0  0  0  0
  5 20  2  0  0  0  0
  5 25  1  0  0  0  0
  6 21  1  0  0  0  0
  6 22  2  0  0  0  0
  6 24  1  0  0  0  0
  7  9  1  0  0  0  0
  7 14  1  0  0  0  0
  8 10  1  0  0  0  0
  8 14  1  0  0  0  0
  9 15  1  0  0  0  0
 10 15  1  0  0  0  0
 11 12  1  0  0  0  0
 11 15  1  0  0  0  0
 12 21  1  0  0  0  0
 13 15  1  0  0  0  0
 13 21  1  0  0  0  0
 14 23  1  0  0  0  0
 16 19  1  0  0  0  0
 17 19  1  0  0  0  0
 18 19  1  0  0  0  0
 19 24  1  0  0  0  0
  1 26  1  0  0  0  0
  2 27  1  0  0  0  0
  3 28  1  0  0  0  0
  7 29  1  0  0  0  0
  7 30  1  0  0  0  0
  8 31  1  0  0  0  0
  8 32  1  0  0  0  0
  9 33  1  0  0  0  0
  9 34  1  0  0  0  0
 10 35  1  0  0  0  0
 10 36  1  0  0  0  0
 11 37  1  0  0  0  0
 11 38  1  0  0  0  0
 12 39  1  0  0  0  0
 12 40  1  0  0  0  0
 13 41  1  0  0  0  0
 13 42  1  0  0  0  0
 16 43  1  0  0  0  0
 16 44  1  0  0  0  0
 16 45  1  0  0  0  0
 17 46  1  0  0  0  0
 17 47  1  0  0  0  0
 17 48  1  0  0  0  0
 18 49  1  0  0  0  0
 18 50  1  0  0  0  0
 18 51  1  0  0  0  0
 23 52  1  0  0  0  0
M  END
> <id>
EN300-7428876

> <smiles>
CC(C)(C)OC(=O)N1CCC2(C1)CCC(O)(CC2)C=3C=CC=NC3Br

> <IUPAC Name>
tert-butyl 8-(2-bromopyridin-3-yl)-8-hydroxy-2-azaspiro[4.5]decane-2-carboxylate

> <CAS>
2309448-58-4

> <URL>
https://www.enaminestore.com/catalog/EN300-7428876

> <ROCS_ShapeQuery>
_x0404_0B

> <ROCS_TanimotoCombo>
0.440 

> <ROCS_ShapeTanimoto>
0.379 

> <ROCS_ColorTanimoto>
0.061 

> <ROCS_RefTversky>
0.332 

> <ROCS_RefColorTversky>
0.067 

> <ROCS_RefTverskyCombo>
0.400 

> <ROCS_FitTversky>
1.586 

> <ROCS_FitColorTversky>
0.393 

> <ROCS_FitTverskyCombo>
1.979 

> <ROCS_ColorScore>
-4.843

> <ROCS_Overlap>
2221.281

> <ROCS_Rank>
219                 

$$$$
untitled-dbase-104512_0
  -OEChem-08222312023D

 37 38  0     0  0  0  0  0  0999 V2000
   -8.6957    6.7193  -10.8544 C   0  0  0  0  0  0  0  0  0  0  0  0
   -8.6319    6.2639  -12.1746 C   0  0  0  0  0  0  0  0  0  0  0  0
   -8.8805    4.0019  -11.4005 C   0  0  0  0  0  0  0  0  0  0  0  0
   -8.9437    4.4677  -10.0756 C   0  0  0  0  0  0  0  0  0  0  0  0
   -8.8515    5.8389   -9.7865 C   0  0  0  0  0  0  0  0  0  0  0  0
   -8.7246    4.9039  -12.4483 C   0  0  0  0  0  0  0  0  0  0  0  0
   -9.0989    3.6192   -8.9830 C   0  0  0  0  0  0  0  0  0  0  0  0
   -9.0629    5.3723   -7.5519 C   0  0  0  0  0  0  0  0  0  0  0  0
   -8.5078    5.1853  -14.9352 C   0  0  0  0  0  0  0  0  0  0  0  0
   -9.1262    5.8855   -6.1531 C   0  0  0  0  0  0  0  0  0  0  0  0
   -7.0177    5.7047  -17.3204 C   0  0  0  0  0  0  0  0  0  0  0  0
   -8.3492    3.8342  -18.3391 C   0  0  0  0  0  0  0  0  0  0  0  0
   -9.5190    5.9004  -17.5199 C   0  0  0  0  0  0  0  0  0  0  0  0
   -8.3452    4.9484  -17.2947 C   0  0  0  0  0  0  0  0  0  0  0  0
   -8.9110    6.2953   -8.5232 N   0  0  0  0  0  0  0  0  0  0  0  0
   -9.1620    4.0422   -7.7064 N   0  0  0  0  0  0  0  0  0  0  0  0
   -8.6606    4.4463  -13.7644 N   0  0  0  0  0  0  0  0  0  0  0  0
   -8.3990    6.4014  -15.0333 O   0  0  0  0  0  0  0  0  0  0  0  0
   -9.1991    2.2640   -9.1636 O   0  0  0  0  0  0  0  0  0  0  0  0
   -8.4955    4.3353  -16.0090 O   0  0  0  0  0  0  0  0  0  0  0  0
   -8.6211    7.7887  -10.6676 H   0  0  0  0  0  0  0  0  0  0  0  0
   -8.5097    6.9846  -12.9793 H   0  0  0  0  0  0  0  0  0  0  0  0
   -8.9516    2.9382  -11.6184 H   0  0  0  0  0  0  0  0  0  0  0  0
  -10.1640    6.1032   -5.8726 H   0  0  0  0  0  0  0  0  0  0  0  0
   -8.7195    5.1549   -5.4417 H   0  0  0  0  0  0  0  0  0  0  0  0
   -8.5349    6.8034   -6.0382 H   0  0  0  0  0  0  0  0  0  0  0  0
   -7.0107    6.5053  -16.5721 H   0  0  0  0  0  0  0  0  0  0  0  0
   -6.1704    5.0391  -17.1254 H   0  0  0  0  0  0  0  0  0  0  0  0
   -6.8617    6.1880  -18.2917 H   0  0  0  0  0  0  0  0  0  0  0  0
   -9.2999    3.2890  -18.3241 H   0  0  0  0  0  0  0  0  0  0  0  0
   -7.5670    3.0967  -18.1260 H   0  0  0  0  0  0  0  0  0  0  0  0
   -8.1903    4.2264  -19.3488 H   0  0  0  0  0  0  0  0  0  0  0  0
  -10.4713    5.3582  -17.5015 H   0  0  0  0  0  0  0  0  0  0  0  0
   -9.5535    6.6855  -16.7577 H   0  0  0  0  0  0  0  0  0  0  0  0
   -9.4523    6.3748  -18.5057 H   0  0  0  0  0  0  0  0  0  0  0  0
   -8.7362    3.4309  -13.8863 H   0  0  0  0  0  0  0  0  0  0  0  0
   -9.3015    1.8271   -8.3069 H   0  0  0  0  0  0  0  0  0  0  0  0
  1  2  2  0  0  0  0
  1  5  1  0  0  0  0
  2  6  1  0  0  0  0
  3  4  1  0  0  0  0
  3  6  2  0  0  0  0
  4  5  1  0  0  0  0
  4  7  2  0  0  0  0
  5 15  2  0  0  0  0
  6 17  1  0  0  0  0
  7 16  1  0  0  0  0
  7 19  1  0  0  0  0
  8 10  1  0  0  0  0
  8 15  1  0  0  0  0
  8 16  2  0  0  0  0
  9 17  1  0  0  0  0
  9 18  2  0  0  0  0
  9 20  1  0  0  0  0
 11 14  1  0  0  0  0
 12 14  1  0  0  0  0
 13 14  1  0  0  0  0
 14 20  1  0  0  0  0
  1 21  1  0  0  0  0
  2 22  1  0  0  0  0
  3 23  1  0  0  0  0
 10 24  1  0  0  0  0
 10 25  1  0  0  0  0
 10 26  1  0  0  0  0
 11 27  1  0  0  0  0
 11 28  1  0  0  0  0
 11 29  1  0  0  0  0
 12 30  1  0  0  0  0
 12 31  1  0  0  0  0
 12 32  1  0  0  0  0
 13 33  1  0  0  0  0
 13 34  1  0  0  0  0
 13 35  1  0  0  0  0
 17 36  1  0  0  0  0
 19 37  1  0  0  0  0
M  END
> <id>
EN300-26664834

> <smiles>
CC=1N=C(O)C=2C=C(NC(=O)OC(C)(C)C)C=CC2N1

> <IUPAC Name>
tert-butyl N-(4-hydroxy-2-methylquinazolin-6-yl)carbamate

> <CAS>
2413875-12-2

> <URL>
https://www.enaminestore.com/catalog/EN300-26664834

> <ROCS_ShapeQuery>
_x0404_0B

> <ROCS_TanimotoCombo>
0.440 

> <ROCS_ShapeTanimoto>
0.344 

> <ROCS_ColorTanimoto>
0.096 

> <ROCS_RefTversky>
0.302 

> <ROCS_RefColorTversky>
0.102 

> <ROCS_RefTverskyCombo>
0.405 

> <ROCS_FitTversky>
1.661 

> <ROCS_FitColorTversky>
0.599 

> <ROCS_FitTverskyCombo>
2.260 

> <ROCS_ColorScore>
-7.398

> <ROCS_Overlap>
2017.868

> <ROCS_Rank>
220                 

$$$$
untitled-dbase-87959_696
  -OEChem-08222312023D

 56 57  0     0  0  0  0  0  0999 V2000
   -8.5984    5.9236  -15.6359 B   0  0  0  0  0  0  0  0  0  0  0  0
   -9.1687    5.9712  -13.1949 C   0  0  0  0  0  0  0  0  0  0  0  0
   -8.9112    6.6528  -14.3241 C   0  0  0  0  0  0  0  0  0  0  0  0
   -8.5682    5.3101   -8.8980 C   0  0  0  0  0  0  0  0  0  0  0  0
   -9.4743    6.7070  -11.9145 C   0  0  0  0  0  0  0  0  0  0  0  0
   -8.9584    3.7395  -11.8702 C   0  0  0  0  0  0  0  0  0  0  0  0
   -8.2977    6.6934  -10.9356 C   0  0  0  0  0  0  0  0  0  0  0  0
   -7.7795    4.2516  -11.0468 C   0  0  0  0  0  0  0  0  0  0  0  0
   -9.1525    4.4622  -13.2035 C   0  0  0  0  0  0  0  0  0  0  0  0
   -8.9148    4.7068  -17.5485 C   0  0  0  0  0  0  0  0  0  0  0  0
   -7.4046    5.0942  -17.4036 C   0  0  0  0  0  0  0  0  0  0  0  0
   -9.1718    3.2170  -17.8162 C   0  0  0  0  0  0  0  0  0  0  0  0
   -9.6954    5.5195  -18.6062 C   0  0  0  0  0  0  0  0  0  0  0  0
   -6.7863    5.7416  -18.6509 C   0  0  0  0  0  0  0  0  0  0  0  0
   -6.4776    3.9398  -16.9605 C   0  0  0  0  0  0  0  0  0  0  0  0
  -10.7728    3.8936   -8.7419 C   0  0  0  0  0  0  0  0  0  0  0  0
   -9.3873    1.8900   -8.1295 C   0  0  0  0  0  0  0  0  0  0  0  0
   -9.7654    3.7119   -6.4426 C   0  0  0  0  0  0  0  0  0  0  0  0
   -9.5833    3.3907   -7.9253 C   0  0  0  0  0  0  0  0  0  0  0  0
   -8.1728    5.4128  -10.2399 N   0  0  0  0  0  0  0  0  0  0  0  0
   -9.0268    6.2399   -8.2364 O   0  0  0  0  0  0  0  0  0  0  0  0
   -9.4882    5.0404  -16.2426 O   0  0  0  0  0  0  0  0  0  0  0  0
   -7.3995    6.0859  -16.3260 O   0  0  0  0  0  0  0  0  0  0  0  0
   -8.3994    4.0479   -8.3922 O   0  0  0  0  0  0  0  0  0  0  0  0
   -8.1683    4.0123  -14.0421 F   0  0  0  0  0  0  0  0  0  0  0  0
  -10.3194    3.9989  -13.7436 F   0  0  0  0  0  0  0  0  0  0  0  0
   -8.9194    7.7406  -14.3300 H   0  0  0  0  0  0  0  0  0  0  0  0
   -9.7290    7.7388  -12.1298 H   0  0  0  0  0  0  0  0  0  0  0  0
  -10.3283    6.2417  -11.4359 H   0  0  0  0  0  0  0  0  0  0  0  0
   -8.8526    2.6656  -12.0440 H   0  0  0  0  0  0  0  0  0  0  0  0
   -9.8667    3.8657  -11.2754 H   0  0  0  0  0  0  0  0  0  0  0  0
   -7.3747    6.9065  -11.4781 H   0  0  0  0  0  0  0  0  0  0  0  0
   -8.4138    7.4839  -10.1910 H   0  0  0  0  0  0  0  0  0  0  0  0
   -7.4071    3.4796  -10.3813 H   0  0  0  0  0  0  0  0  0  0  0  0
   -6.9761    4.5364  -11.7187 H   0  0  0  0  0  0  0  0  0  0  0  0
  -10.2390    3.0543  -17.8996 H   0  0  0  0  0  0  0  0  0  0  0  0
   -8.7720    2.6384  -16.9929 H   0  0  0  0  0  0  0  0  0  0  0  0
   -8.6807    2.9365  -18.7396 H   0  0  0  0  0  0  0  0  0  0  0  0
  -10.7270    5.1806  -18.6330 H   0  0  0  0  0  0  0  0  0  0  0  0
   -9.2403    5.3740  -19.5815 H   0  0  0  0  0  0  0  0  0  0  0  0
   -9.6663    6.5735  -18.3455 H   0  0  0  0  0  0  0  0  0  0  0  0
   -5.7472    5.9700  -18.4494 H   0  0  0  0  0  0  0  0  0  0  0  0
   -7.3280    6.6508  -18.8795 H   0  0  0  0  0  0  0  0  0  0  0  0
   -6.8595    5.0480  -19.4792 H   0  0  0  0  0  0  0  0  0  0  0  0
   -5.4568    4.3037  -16.8885 H   0  0  0  0  0  0  0  0  0  0  0  0
   -6.5260    3.1372  -17.6906 H   0  0  0  0  0  0  0  0  0  0  0  0
   -6.8000    3.5693  -15.9917 H   0  0  0  0  0  0  0  0  0  0  0  0
  -10.9168    4.9704   -8.5980 H   0  0  0  0  0  0  0  0  0  0  0  0
  -10.6385    3.7006   -9.8112 H   0  0  0  0  0  0  0  0  0  0  0  0
  -11.7019    3.4114   -8.4171 H   0  0  0  0  0  0  0  0  0  0  0  0
   -8.5348    1.5248   -7.5454 H   0  0  0  0  0  0  0  0  0  0  0  0
   -9.1620    1.6649   -9.1782 H   0  0  0  0  0  0  0  0  0  0  0  0
  -10.2767    1.3228   -7.8365 H   0  0  0  0  0  0  0  0  0  0  0  0
   -8.9123    3.3512   -5.8566 H   0  0  0  0  0  0  0  0  0  0  0  0
   -9.8706    4.7884   -6.2731 H   0  0  0  0  0  0  0  0  0  0  0  0
  -10.6518    3.2078   -6.0407 H   0  0  0  0  0  0  0  0  0  0  0  0
  1  3  1  0  0  0  0
  1 22  1  0  0  0  0
  1 23  1  0  0  0  0
  2  3  2  3  0  0  0
  2  5  1  0  0  0  0
  2  9  1  0  0  0  0
  4 20  1  0  0  0  0
  4 21  2  0  0  0  0
  4 24  1  0  0  0  0
  5  7  1  0  0  0  0
  6  8  1  0  0  0  0
  6  9  1  0  0  0  0
  7 20  1  0  0  0  0
  8 20  1  0  0  0  0
  9 25  1  0  0  0  0
  9 26  1  0  0  0  0
 10 11  1  0  0  0  0
 10 12  1  0  0  0  0
 10 13  1  0  0  0  0
 10 22  1  0  0  0  0
 11 14  1  0  0  0  0
 11 15  1  0  0  0  0
 11 23  1  0  0  0  0
 16 19  1  0  0  0  0
 17 19  1  0  0  0  0
 18 19  1  0  0  0  0
 19 24  1  0  0  0  0
  3 27  1  0  0  0  0
  5 28  1  0  0  0  0
  5 29  1  0  0  0  0
  6 30  1  0  0  0  0
  6 31  1  0  0  0  0
  7 32  1  0  0  0  0
  7 33  1  0  0  0  0
  8 34  1  0  0  0  0
  8 35  1  0  0  0  0
 12 36  1  0  0  0  0
 12 37  1  0  0  0  0
 12 38  1  0  0  0  0
 13 39  1  0  0  0  0
 13 40  1  0  0  0  0
 13 41  1  0  0  0  0
 14 42  1  0  0  0  0
 14 43  1  0  0  0  0
 14 44  1  0  0  0  0
 15 45  1  0  0  0  0
 15 46  1  0  0  0  0
 15 47  1  0  0  0  0
 16 48  1  0  0  0  0
 16 49  1  0  0  0  0
 16 50  1  0  0  0  0
 17 51  1  0  0  0  0
 17 52  1  0  0  0  0
 17 53  1  0  0  0  0
 18 54  1  0  0  0  0
 18 55  1  0  0  0  0
 18 56  1  0  0  0  0
M  END
> <id>
EN300-6504887

> <smiles>
CC(C)(C)OC(=O)N1CCC(=CB2OC(C)(C)C(C)(C)O2)C(F)(F)CC1

> <IUPAC Name>
tert-butyl 4,4-difluoro-5-[(tetramethyl-1,3,2-dioxaborolan-2-yl)methylidene]azepane-1-carboxylate

> <URL>
https://www.enaminestore.com/catalog/EN300-6504887

> <ROCS_ShapeQuery>
_x0404_0B

> <ROCS_TanimotoCombo>
0.440 

> <ROCS_ShapeTanimoto>
0.393 

> <ROCS_ColorTanimoto>
0.047 

> <ROCS_RefTversky>
0.343 

> <ROCS_RefColorTversky>
0.051 

> <ROCS_RefTverskyCombo>
0.394 

> <ROCS_FitTversky>
1.587 

> <ROCS_FitColorTversky>
0.385 

> <ROCS_FitTverskyCombo>
1.971 

> <ROCS_ColorScore>
-3.649

> <ROCS_Overlap>
2292.497

> <ROCS_Rank>
221                 

$$$$
untitled-dbase-169855_151
  -OEChem-08222312023D

 38 39  0     0  0  0  0  0  0999 V2000
   -9.2105    6.1506  -11.1112 C   0  0  0  0  0  0  0  0  0  0  0  0
   -9.1536    6.3783  -12.4905 C   0  0  0  0  0  0  0  0  0  0  0  0
   -8.3272    3.9084  -11.3843 C   0  0  0  0  0  0  0  0  0  0  0  0
   -8.2638    4.1219  -12.7725 C   0  0  0  0  0  0  0  0  0  0  0  0
   -8.8045    4.9356  -10.5646 C   0  0  0  0  0  0  0  0  0  0  0  0
   -8.6738    5.3425  -13.3066 C   0  0  0  0  0  0  0  0  0  0  0  0
   -7.8585    3.3655  -13.8857 C   0  0  0  0  0  0  0  0  0  0  0  0
   -8.8750    4.7318   -9.1258 C   0  0  0  0  0  0  0  0  0  0  0  0
   -8.7497    6.1857  -15.6678 C   0  0  0  0  0  0  0  0  0  0  0  0
   -6.8135    6.1399  -17.3962 C   0  0  0  0  0  0  0  0  0  0  0  0
   -8.2041    4.6318  -18.8457 C   0  0  0  0  0  0  0  0  0  0  0  0
   -8.7660    7.0742  -18.6805 C   0  0  0  0  0  0  0  0  0  0  0  0
   -9.1823    3.0890   -7.4238 C   0  0  0  0  0  0  0  0  0  0  0  0
   -8.2149    5.8587  -17.9364 C   0  0  0  0  0  0  0  0  0  0  0  0
   -7.9893    4.0236  -15.0352 N   0  0  0  0  0  0  0  0  0  0  0  0
   -8.4891    5.2339  -14.6786 N   0  0  0  0  0  0  0  0  0  0  0  0
   -7.3894    2.0965  -13.7570 N   0  0  0  0  0  0  0  0  0  0  0  0
   -8.7553    5.6323   -8.2849 O   0  0  0  0  0  0  0  0  0  0  0  0
   -8.6700    7.3803  -15.4331 O   0  0  0  0  0  0  0  0  0  0  0  0
   -9.0920    3.4175   -8.8143 O   0  0  0  0  0  0  0  0  0  0  0  0
   -9.0786    5.5699  -16.8331 O   0  0  0  0  0  0  0  0  0  0  0  0
   -9.5795    6.9448  -10.4654 H   0  0  0  0  0  0  0  0  0  0  0  0
   -9.4736    7.3307  -12.8973 H   0  0  0  0  0  0  0  0  0  0  0  0
   -8.0093    2.9616  -10.9563 H   0  0  0  0  0  0  0  0  0  0  0  0
   -6.8170    7.0198  -16.7430 H   0  0  0  0  0  0  0  0  0  0  0  0
   -6.4209    5.2886  -16.8306 H   0  0  0  0  0  0  0  0  0  0  0  0
   -6.1173    6.3637  -18.2126 H   0  0  0  0  0  0  0  0  0  0  0  0
   -9.2076    4.4264  -19.2355 H   0  0  0  0  0  0  0  0  0  0  0  0
   -7.8996    3.7372  -18.2906 H   0  0  0  0  0  0  0  0  0  0  0  0
   -7.5232    4.7627  -19.6928 H   0  0  0  0  0  0  0  0  0  0  0  0
   -9.7712    6.8727  -19.0680 H   0  0  0  0  0  0  0  0  0  0  0  0
   -8.8156    7.9553  -18.0326 H   0  0  0  0  0  0  0  0  0  0  0  0
   -8.1423    7.3152  -19.5489 H   0  0  0  0  0  0  0  0  0  0  0  0
   -9.3555    2.0158   -7.3127 H   0  0  0  0  0  0  0  0  0  0  0  0
  -10.0020    3.6504   -6.9684 H   0  0  0  0  0  0  0  0  0  0  0  0
   -8.2433    3.3569   -6.9335 H   0  0  0  0  0  0  0  0  0  0  0  0
   -7.1385    1.5289  -14.5740 H   0  0  0  0  0  0  0  0  0  0  0  0
   -7.3570    1.6236  -12.8471 H   0  0  0  0  0  0  0  0  0  0  0  0
  1  2  1  0  0  0  0
  1  5  2  0  0  0  0
  2  6  2  0  0  0  0
  3  4  2  0  0  0  0
  3  5  1  0  0  0  0
  4  6  1  0  0  0  0
  4  7  1  0  0  0  0
  5  8  1  0  0  0  0
  6 16  1  0  0  0  0
  7 15  2  0  0  0  0
  7 17  1  0  0  0  0
  8 18  2  0  0  0  0
  8 20  1  0  0  0  0
  9 16  1  0  0  0  0
  9 19  2  0  0  0  0
  9 21  1  0  0  0  0
 10 14  1  0  0  0  0
 11 14  1  0  0  0  0
 12 14  1  0  0  0  0
 13 20  1  0  0  0  0
 14 21  1  0  0  0  0
 15 16  1  0  0  0  0
  1 22  1  0  0  0  0
  2 23  1  0  0  0  0
  3 24  1  0  0  0  0
 10 25  1  0  0  0  0
 10 26  1  0  0  0  0
 10 27  1  0  0  0  0
 11 28  1  0  0  0  0
 11 29  1  0  0  0  0
 11 30  1  0  0  0  0
 12 31  1  0  0  0  0
 12 32  1  0  0  0  0
 12 33  1  0  0  0  0
 13 34  1  0  0  0  0
 13 35  1  0  0  0  0
 13 36  1  0  0  0  0
 17 37  1  0  0  0  0
 17 38  1  0  0  0  0
M  END
> <id>
EN300-39874880

> <smiles>
COC(=O)C=1C=CC=2N(N=C(N)C2C1)C(=O)OC(C)(C)C

> <IUPAC Name>
1-tert-butyl 5-methyl 3-amino-1H-indazole-1,5-dicarboxylate

> <URL>
https://www.enaminestore.com/catalog/EN300-39874880

> <ROCS_ShapeQuery>
_x0404_0B

> <ROCS_TanimotoCombo>
0.440 

> <ROCS_ShapeTanimoto>
0.331 

> <ROCS_ColorTanimoto>
0.108 

> <ROCS_RefTversky>
0.296 

> <ROCS_RefColorTversky>
0.113 

> <ROCS_RefTverskyCombo>
0.409 

> <ROCS_FitTversky>
1.561 

> <ROCS_FitColorTversky>
0.718 

> <ROCS_FitTverskyCombo>
2.278 

> <ROCS_ColorScore>
-8.184

> <ROCS_Overlap>
1975.112

> <ROCS_Rank>
222                 

$$$$
untitled-dbase-91478_1631
  -OEChem-08222312023D

 52 54  0     0  0  0  0  0  0999 V2000
  -10.1803    4.7049  -17.3262 C   0  0  0  0  0  0  0  0  0  0  0  0
  -10.2877    4.4553  -18.6849 C   0  0  0  0  0  0  0  0  0  0  0  0
   -8.0281    4.7220  -19.0033 C   0  0  0  0  0  0  0  0  0  0  0  0
   -8.9168    4.9735  -16.8117 C   0  0  0  0  0  0  0  0  0  0  0  0
   -7.8149    4.9843  -17.6596 C   0  0  0  0  0  0  0  0  0  0  0  0
   -9.4798    5.3528   -8.7920 C   0  0  0  0  0  0  0  0  0  0  0  0
  -10.1049    5.2001  -14.5167 C   0  0  0  0  0  0  0  0  0  0  0  0
   -7.7360    4.3004  -14.6865 C   0  0  0  0  0  0  0  0  0  0  0  0
   -9.9154    5.5593  -13.0353 C   0  0  0  0  0  0  0  0  0  0  0  0
   -8.1112    3.7824  -13.2934 C   0  0  0  0  0  0  0  0  0  0  0  0
   -7.6240    5.8995  -11.9494 C   0  0  0  0  0  0  0  0  0  0  0  0
   -8.1458    6.4547  -10.6296 C   0  0  0  0  0  0  0  0  0  0  0  0
   -9.0802    4.2710  -11.0049 C   0  0  0  0  0  0  0  0  0  0  0  0
   -8.7866    5.2504  -15.3136 C   0  0  0  0  0  0  0  0  0  0  0  0
   -8.6938    4.8636  -12.3754 C   0  0  0  0  0  0  0  0  0  0  0  0
   -9.0693    4.3344   -6.4137 C   0  0  0  0  0  0  0  0  0  0  0  0
  -10.8953    2.6685   -6.8609 C   0  0  0  0  0  0  0  0  0  0  0  0
   -8.6630    2.4085   -7.9823 C   0  0  0  0  0  0  0  0  0  0  0  0
   -9.6942    3.4036   -7.4519 C   0  0  0  0  0  0  0  0  0  0  0  0
   -9.2404    4.4570  -19.5397 N   0  0  0  0  0  0  0  0  0  0  0  0
   -8.9348    5.3708  -10.0642 N   0  0  0  0  0  0  0  0  0  0  0  0
   -9.3603    6.2640   -7.9761 O   0  0  0  0  0  0  0  0  0  0  0  0
   -8.2871    6.5939  -15.1794 O   0  0  0  0  0  0  0  0  0  0  0  0
  -10.1689    4.1953   -8.5466 O   0  0  0  0  0  0  0  0  0  0  0  0
   -6.0641    5.3397  -17.0451 Br  0  0  0  0  0  0  0  0  0  0  0  0
  -11.0604    4.6888  -16.6923 H   0  0  0  0  0  0  0  0  0  0  0  0
  -11.2510    4.2404  -19.1356 H   0  0  0  0  0  0  0  0  0  0  0  0
   -7.2116    4.7147  -19.7193 H   0  0  0  0  0  0  0  0  0  0  0  0
  -10.5473    4.2022  -14.5864 H   0  0  0  0  0  0  0  0  0  0  0  0
  -10.8288    5.8997  -14.9467 H   0  0  0  0  0  0  0  0  0  0  0  0
   -6.7670    4.8192  -14.6096 H   0  0  0  0  0  0  0  0  0  0  0  0
   -7.5700    3.4380  -15.3523 H   0  0  0  0  0  0  0  0  0  0  0  0
   -9.7964    6.6480  -12.9517 H   0  0  0  0  0  0  0  0  0  0  0  0
  -10.8405    5.3164  -12.4971 H   0  0  0  0  0  0  0  0  0  0  0  0
   -8.8242    2.9505  -13.4081 H   0  0  0  0  0  0  0  0  0  0  0  0
   -7.2193    3.3408  -12.8214 H   0  0  0  0  0  0  0  0  0  0  0  0
   -7.4707    6.6864  -12.6933 H   0  0  0  0  0  0  0  0  0  0  0  0
   -6.6602    5.4054  -11.7775 H   0  0  0  0  0  0  0  0  0  0  0  0
   -7.3423    6.7460   -9.9469 H   0  0  0  0  0  0  0  0  0  0  0  0
   -8.8078    7.3134  -10.7815 H   0  0  0  0  0  0  0  0  0  0  0  0
  -10.0921    3.8595  -10.9524 H   0  0  0  0  0  0  0  0  0  0  0  0
   -8.3807    3.4885  -10.6866 H   0  0  0  0  0  0  0  0  0  0  0  0
   -8.2068    4.8639   -6.8340 H   0  0  0  0  0  0  0  0  0  0  0  0
   -9.7892    5.0753   -6.0509 H   0  0  0  0  0  0  0  0  0  0  0  0
   -8.6946    3.7664   -5.5545 H   0  0  0  0  0  0  0  0  0  0  0  0
  -11.3468    1.9995   -7.6024 H   0  0  0  0  0  0  0  0  0  0  0  0
  -11.6789    3.3756   -6.5655 H   0  0  0  0  0  0  0  0  0  0  0  0
  -10.6148    2.0756   -5.9843 H   0  0  0  0  0  0  0  0  0  0  0  0
   -9.1110    1.7408   -8.7271 H   0  0  0  0  0  0  0  0  0  0  0  0
   -7.8108    2.9182   -8.4434 H   0  0  0  0  0  0  0  0  0  0  0  0
   -8.2903    1.7666   -7.1759 H   0  0  0  0  0  0  0  0  0  0  0  0
   -7.4291    6.6154  -15.6304 H   0  0  0  0  0  0  0  0  0  0  0  0
  1  2  1  0  0  0  0
  1  4  2  0  0  0  0
  2 20  2  0  0  0  0
  3  5  2  0  0  0  0
  3 20  1  0  0  0  0
  4  5  1  0  0  0  0
  4 14  1  0  0  0  0
  5 25  1  0  0  0  0
  6 21  1  0  0  0  0
  6 22  2  0  0  0  0
  6 24  1  0  0  0  0
  7  9  1  0  0  0  0
  7 14  1  0  0  0  0
  8 10  1  0  0  0  0
  8 14  1  0  0  0  0
  9 15  1  0  0  0  0
 10 15  1  0  0  0  0
 11 12  1  0  0  0  0
 11 15  1  0  0  0  0
 12 21  1  0  0  0  0
 13 15  1  0  0  0  0
 13 21  1  0  0  0  0
 14 23  1  0  0  0  0
 16 19  1  0  0  0  0
 17 19  1  0  0  0  0
 18 19  1  0  0  0  0
 19 24  1  0  0  0  0
  1 26  1  0  0  0  0
  2 27  1  0  0  0  0
  3 28  1  0  0  0  0
  7 29  1  0  0  0  0
  7 30  1  0  0  0  0
  8 31  1  0  0  0  0
  8 32  1  0  0  0  0
  9 33  1  0  0  0  0
  9 34  1  0  0  0  0
 10 35  1  0  0  0  0
 10 36  1  0  0  0  0
 11 37  1  0  0  0  0
 11 38  1  0  0  0  0
 12 39  1  0  0  0  0
 12 40  1  0  0  0  0
 13 41  1  0  0  0  0
 13 42  1  0  0  0  0
 16 43  1  0  0  0  0
 16 44  1  0  0  0  0
 16 45  1  0  0  0  0
 17 46  1  0  0  0  0
 17 47  1  0  0  0  0
 17 48  1  0  0  0  0
 18 49  1  0  0  0  0
 18 50  1  0  0  0  0
 18 51  1  0  0  0  0
 23 52  1  0  0  0  0
M  END
> <id>
EN300-7428875

> <smiles>
CC(C)(C)OC(=O)N1CCC2(C1)CCC(O)(CC2)C=3C=CN=CC3Br

> <IUPAC Name>
tert-butyl 8-(3-bromopyridin-4-yl)-8-hydroxy-2-azaspiro[4.5]decane-2-carboxylate

> <CAS>
2309460-07-7

> <URL>
https://www.enaminestore.com/catalog/EN300-7428875

> <ROCS_ShapeQuery>
_x0404_0B

> <ROCS_TanimotoCombo>
0.440 

> <ROCS_ShapeTanimoto>
0.379 

> <ROCS_ColorTanimoto>
0.061 

> <ROCS_RefTversky>
0.332 

> <ROCS_RefColorTversky>
0.067 

> <ROCS_RefTverskyCombo>
0.399 

> <ROCS_FitTversky>
1.586 

> <ROCS_FitColorTversky>
0.392 

> <ROCS_FitTverskyCombo>
1.978 

> <ROCS_ColorScore>
-4.837

> <ROCS_Overlap>
2220.744

> <ROCS_Rank>
223                 

$$$$
untitled-dbase-154771_10
  -OEChem-08222312023D

 41 43  0     0  0  0  0  0  0999 V2000
   -8.7832    3.0844   -5.4824 C   0  0  0  0  0  0  0  0  0  0  0  0
   -8.7363    1.8119   -6.0482 C   0  0  0  0  0  0  0  0  0  0  0  0
   -8.8559    4.2120   -6.3008 C   0  0  0  0  0  0  0  0  0  0  0  0
   -8.7620    1.6615   -7.4350 C   0  0  0  0  0  0  0  0  0  0  0  0
   -9.0587    6.2248  -10.8438 C   0  0  0  0  0  0  0  0  0  0  0  0
   -9.0843    6.0744  -12.2306 C   0  0  0  0  0  0  0  0  0  0  0  0
   -8.9649    3.6743  -11.9781 C   0  0  0  0  0  0  0  0  0  0  0  0
   -8.8819    4.0655   -7.6929 C   0  0  0  0  0  0  0  0  0  0  0  0
   -8.8350    2.7902   -8.2600 C   0  0  0  0  0  0  0  0  0  0  0  0
   -8.9857    5.0961  -10.0188 C   0  0  0  0  0  0  0  0  0  0  0  0
   -8.9389    3.8208  -10.5860 C   0  0  0  0  0  0  0  0  0  0  0  0
   -9.0375    4.8018  -12.7965 C   0  0  0  0  0  0  0  0  0  0  0  0
   -8.9590    5.2650   -8.5516 C   0  0  0  0  0  0  0  0  0  0  0  0
   -8.8618    2.6213   -9.7273 C   0  0  0  0  0  0  0  0  0  0  0  0
   -8.5824    5.5266  -15.1584 C   0  0  0  0  0  0  0  0  0  0  0  0
   -6.4860    4.8694  -16.9894 C   0  0  0  0  0  0  0  0  0  0  0  0
   -8.3067    4.6418  -18.7049 C   0  0  0  0  0  0  0  0  0  0  0  0
   -7.8985    6.8607  -17.6012 C   0  0  0  0  0  0  0  0  0  0  0  0
   -7.8734    5.3437  -17.4197 C   0  0  0  0  0  0  0  0  0  0  0  0
   -9.0633    4.6556  -14.1841 N   0  0  0  0  0  0  0  0  0  0  0  0
   -9.0007    6.3835   -8.0542 O   0  0  0  0  0  0  0  0  0  0  0  0
   -8.8202    1.5026  -10.2241 O   0  0  0  0  0  0  0  0  0  0  0  0
   -8.0354    6.6079  -14.9793 O   0  0  0  0  0  0  0  0  0  0  0  0
   -8.8129    4.9911  -16.3976 O   0  0  0  0  0  0  0  0  0  0  0  0
   -8.7637    3.1987   -4.4023 H   0  0  0  0  0  0  0  0  0  0  0  0
   -8.6801    0.9357   -5.4088 H   0  0  0  0  0  0  0  0  0  0  0  0
   -8.8915    5.1930   -5.8350 H   0  0  0  0  0  0  0  0  0  0  0  0
   -8.7245    0.6585   -7.8516 H   0  0  0  0  0  0  0  0  0  0  0  0
   -9.0963    7.2278  -10.4272 H   0  0  0  0  0  0  0  0  0  0  0  0
   -9.1412    6.9590  -12.8604 H   0  0  0  0  0  0  0  0  0  0  0  0
   -8.9291    2.6867  -12.4331 H   0  0  0  0  0  0  0  0  0  0  0  0
   -6.1714    5.3709  -16.0672 H   0  0  0  0  0  0  0  0  0  0  0  0
   -6.4635    3.7876  -16.8220 H   0  0  0  0  0  0  0  0  0  0  0  0
   -5.7351    5.1179  -17.7481 H   0  0  0  0  0  0  0  0  0  0  0  0
   -9.3016    4.9791  -19.0173 H   0  0  0  0  0  0  0  0  0  0  0  0
   -8.3817    3.5591  -18.5520 H   0  0  0  0  0  0  0  0  0  0  0  0
   -7.6044    4.8285  -19.5237 H   0  0  0  0  0  0  0  0  0  0  0  0
   -8.8935    7.2011  -17.9098 H   0  0  0  0  0  0  0  0  0  0  0  0
   -7.6259    7.3819  -16.6778 H   0  0  0  0  0  0  0  0  0  0  0  0
   -7.2066    7.1699  -18.3930 H   0  0  0  0  0  0  0  0  0  0  0  0
   -9.4932    3.7925  -14.5323 H   0  0  0  0  0  0  0  0  0  0  0  0
  1  2  2  0  0  0  0
  1  3  1  0  0  0  0
  2  4  1  0  0  0  0
  3  8  2  0  0  0  0
  4  9  2  0  0  0  0
  5  6  1  0  0  0  0
  5 10  2  0  0  0  0
  6 12  2  0  0  0  0
  7 11  2  0  0  0  0
  7 12  1  0  0  0  0
  8  9  1  0  0  0  0
  8 13  1  0  0  0  0
  9 14  1  0  0  0  0
 10 11  1  0  0  0  0
 10 13  1  0  0  0  0
 11 14  1  0  0  0  0
 12 20  1  0  0  0  0
 13 21  2  0  0  0  0
 14 22  2  0  0  0  0
 15 20  1  0  0  0  0
 15 23  2  0  0  0  0
 15 24  1  0  0  0  0
 16 19  1  0  0  0  0
 17 19  1  0  0  0  0
 18 19  1  0  0  0  0
 19 24  1  0  0  0  0
  1 25  1  0  0  0  0
  2 26  1  0  0  0  0
  3 27  1  0  0  0  0
  4 28  1  0  0  0  0
  5 29  1  0  0  0  0
  6 30  1  0  0  0  0
  7 31  1  0  0  0  0
 16 32  1  0  0  0  0
 16 33  1  0  0  0  0
 16 34  1  0  0  0  0
 17 35  1  0  0  0  0
 17 36  1  0  0  0  0
 17 37  1  0  0  0  0
 18 38  1  0  0  0  0
 18 39  1  0  0  0  0
 18 40  1  0  0  0  0
 20 41  1  0  0  0  0
M  END
> <id>
EN300-19495705

> <smiles>
CC(C)(C)OC(=O)NC=1C=CC=2C(=O)C=3C=CC=CC3C(=O)C2C1

> <MDLNUMBER>
MFCD28510626

> <IUPAC Name>
tert-butyl N-(9,10-dioxo-9,10-dihydroanthracen-2-yl)carbamate

> <CAS>
1909556-74-6

> <URL>
https://www.enaminestore.com/catalog/EN300-19495705

> <ROCS_ShapeQuery>
_x0404_0B

> <ROCS_TanimotoCombo>
0.440 

> <ROCS_ShapeTanimoto>
0.365 

> <ROCS_ColorTanimoto>
0.074 

> <ROCS_RefTversky>
0.324 

> <ROCS_RefColorTversky>
0.080 

> <ROCS_RefTverskyCombo>
0.404 

> <ROCS_FitTversky>
1.543 

> <ROCS_FitColorTversky>
0.508 

> <ROCS_FitTverskyCombo>
2.051 

> <ROCS_ColorScore>
-5.786

> <ROCS_Overlap>
2162.058

> <ROCS_Rank>
224                 

$$$$
untitled-dbase-154443_3
  -OEChem-08222312023D

 41 43  0     0  0  0  0  0  0999 V2000
   -9.3527    3.2019   -5.4614 C   0  0  0  0  0  0  0  0  0  0  0  0
   -9.4783    1.9232   -6.0007 C   0  0  0  0  0  0  0  0  0  0  0  0
   -9.1800    4.3019   -6.3019 C   0  0  0  0  0  0  0  0  0  0  0  0
   -9.4317    1.7391   -7.3829 C   0  0  0  0  0  0  0  0  0  0  0  0
   -8.7281    6.1889  -10.8809 C   0  0  0  0  0  0  0  0  0  0  0  0
   -8.6815    6.0047  -12.2631 C   0  0  0  0  0  0  0  0  0  0  0  0
   -9.1327    4.1217   -7.6895 C   0  0  0  0  0  0  0  0  0  0  0  0
   -9.2586    2.8402   -8.2300 C   0  0  0  0  0  0  0  0  0  0  0  0
   -8.9014    5.0877  -10.0338 C   0  0  0  0  0  0  0  0  0  0  0  0
   -9.0274    3.8063  -10.5743 C   0  0  0  0  0  0  0  0  0  0  0  0
   -8.8072    4.7260  -12.8024 C   0  0  0  0  0  0  0  0  0  0  0  0
   -8.9800    3.6260  -11.9619 C   0  0  0  0  0  0  0  0  0  0  0  0
   -8.9495    5.2923   -8.5717 C   0  0  0  0  0  0  0  0  0  0  0  0
   -9.2105    2.6357   -9.6921 C   0  0  0  0  0  0  0  0  0  0  0  0
   -8.5851    5.6027  -15.1462 C   0  0  0  0  0  0  0  0  0  0  0  0
   -6.2106    5.3442  -16.2277 C   0  0  0  0  0  0  0  0  0  0  0  0
   -7.2531    4.0199  -18.0902 C   0  0  0  0  0  0  0  0  0  0  0  0
   -7.5659    6.5103  -17.9992 C   0  0  0  0  0  0  0  0  0  0  0  0
   -7.4040    5.2335  -17.1756 C   0  0  0  0  0  0  0  0  0  0  0  0
   -8.7521    4.6024  -14.1961 N   0  0  0  0  0  0  0  0  0  0  0  0
   -8.8397    6.4162   -8.0976 O   0  0  0  0  0  0  0  0  0  0  0  0
   -9.3279    1.4880  -10.0998 O   0  0  0  0  0  0  0  0  0  0  0  0
   -8.4524    6.8036  -14.9445 O   0  0  0  0  0  0  0  0  0  0  0  0
   -8.5896    5.0409  -16.3951 O   0  0  0  0  0  0  0  0  0  0  0  0
   -9.1264    2.0778  -12.7528 Cl  0  0  0  0  0  0  0  0  0  0  0  0
   -9.3895    3.3431   -4.3851 H   0  0  0  0  0  0  0  0  0  0  0  0
   -9.6120    1.0685   -5.3439 H   0  0  0  0  0  0  0  0  0  0  0  0
   -9.0848    5.2886   -5.8564 H   0  0  0  0  0  0  0  0  0  0  0  0
   -9.5334    0.7303   -7.7737 H   0  0  0  0  0  0  0  0  0  0  0  0
   -8.6275    7.1960  -10.4853 H   0  0  0  0  0  0  0  0  0  0  0  0
   -8.5471    6.8691  -12.9086 H   0  0  0  0  0  0  0  0  0  0  0  0
   -6.3152    6.2141  -15.5695 H   0  0  0  0  0  0  0  0  0  0  0  0
   -6.1045    4.4488  -15.6066 H   0  0  0  0  0  0  0  0  0  0  0  0
   -5.2793    5.4899  -16.7869 H   0  0  0  0  0  0  0  0  0  0  0  0
   -8.1072    3.9366  -18.7720 H   0  0  0  0  0  0  0  0  0  0  0  0
   -7.2319    3.0921  -17.5073 H   0  0  0  0  0  0  0  0  0  0  0  0
   -6.3371    4.0754  -18.6872 H   0  0  0  0  0  0  0  0  0  0  0  0
   -8.4219    6.4312  -18.6791 H   0  0  0  0  0  0  0  0  0  0  0  0
   -7.7124    7.3869  -17.3597 H   0  0  0  0  0  0  0  0  0  0  0  0
   -6.6855    6.6820  -18.6290 H   0  0  0  0  0  0  0  0  0  0  0  0
   -8.8472    3.6520  -14.5626 H   0  0  0  0  0  0  0  0  0  0  0  0
  1  2  2  0  0  0  0
  1  3  1  0  0  0  0
  2  4  1  0  0  0  0
  3  7  2  0  0  0  0
  4  8  2  0  0  0  0
  5  6  1  0  0  0  0
  5  9  2  0  0  0  0
  6 11  2  0  0  0  0
  7  8  1  0  0  0  0
  7 13  1  0  0  0  0
  8 14  1  0  0  0  0
  9 10  1  0  0  0  0
  9 13  1  0  0  0  0
 10 12  2  0  0  0  0
 10 14  1  0  0  0  0
 11 12  1  0  0  0  0
 11 20  1  0  0  0  0
 12 25  1  0  0  0  0
 13 21  2  0  0  0  0
 14 22  2  0  0  0  0
 15 20  1  0  0  0  0
 15 23  2  0  0  0  0
 15 24  1  0  0  0  0
 16 19  1  0  0  0  0
 17 19  1  0  0  0  0
 18 19  1  0  0  0  0
 19 24  1  0  0  0  0
  1 26  1  0  0  0  0
  2 27  1  0  0  0  0
  3 28  1  0  0  0  0
  4 29  1  0  0  0  0
  5 30  1  0  0  0  0
  6 31  1  0  0  0  0
 16 32  1  0  0  0  0
 16 33  1  0  0  0  0
 16 34  1  0  0  0  0
 17 35  1  0  0  0  0
 17 36  1  0  0  0  0
 17 37  1  0  0  0  0
 18 38  1  0  0  0  0
 18 39  1  0  0  0  0
 18 40  1  0  0  0  0
 20 41  1  0  0  0  0
M  END
> <id>
EN300-28299447

> <smiles>
CC(C)(C)OC(=O)NC=1C=CC=2C(=O)C=3C=CC=CC3C(=O)C2C1Cl

> <IUPAC Name>
tert-butyl N-(1-chloro-9,10-dioxo-9,10-dihydroanthracen-2-yl)carbamate

> <CAS>
2680895-63-8

> <URL>
https://www.enaminestore.com/catalog/EN300-28299447

> <ROCS_ShapeQuery>
_x0404_0B

> <ROCS_TanimotoCombo>
0.439 

> <ROCS_ShapeTanimoto>
0.365 

> <ROCS_ColorTanimoto>
0.074 

> <ROCS_RefTversky>
0.325 

> <ROCS_RefColorTversky>
0.080 

> <ROCS_RefTverskyCombo>
0.405 

> <ROCS_FitTversky>
1.510 

> <ROCS_FitColorTversky>
0.507 

> <ROCS_FitTverskyCombo>
2.017 

> <ROCS_ColorScore>
-5.770

> <ROCS_Overlap>
2173.060

> <ROCS_Rank>
225                 

$$$$
untitled-dbase-90665_1308
  -OEChem-08222312023D

 56 58  0     0  0  0  0  0  0999 V2000
   -8.8066    4.0753  -19.0555 C   0  0  0  0  0  0  0  0  0  0  0  0
  -10.0540    3.9838  -18.4844 C   0  0  0  0  0  0  0  0  0  0  0  0
   -8.8431    4.9853  -17.0487 C   0  0  0  0  0  0  0  0  0  0  0  0
   -9.2934    5.0234   -8.7226 C   0  0  0  0  0  0  0  0  0  0  0  0
   -7.7752    4.6876  -14.7760 C   0  0  0  0  0  0  0  0  0  0  0  0
   -9.4201    6.5968  -15.1863 C   0  0  0  0  0  0  0  0  0  0  0  0
   -7.4055    5.3193  -13.4283 C   0  0  0  0  0  0  0  0  0  0  0  0
   -9.0195    7.2070  -13.8389 C   0  0  0  0  0  0  0  0  0  0  0  0
   -8.0219    6.9152  -11.5517 C   0  0  0  0  0  0  0  0  0  0  0  0
   -9.7419    5.2741  -12.3572 C   0  0  0  0  0  0  0  0  0  0  0  0
   -7.7189    5.9961  -10.3705 C   0  0  0  0  0  0  0  0  0  0  0  0
   -9.4257    4.3769  -11.1603 C   0  0  0  0  0  0  0  0  0  0  0  0
   -8.3204    5.7051  -15.8007 C   0  0  0  0  0  0  0  0  0  0  0  0
   -8.5470    6.1595  -12.8002 C   0  0  0  0  0  0  0  0  0  0  0  0
   -8.5847    3.9609   -6.4296 C   0  0  0  0  0  0  0  0  0  0  0  0
  -10.3077    2.1673   -6.7810 C   0  0  0  0  0  0  0  0  0  0  0  0
   -8.1741    2.1285   -8.1054 C   0  0  0  0  0  0  0  0  0  0  0  0
   -6.6443    5.0518  -18.2677 C   0  0  0  0  0  0  0  0  0  0  0  0
   -9.2272    3.0175   -7.4455 C   0  0  0  0  0  0  0  0  0  0  0  0
  -10.0702    4.5523  -17.2354 N   0  0  0  0  0  0  0  0  0  0  0  0
   -8.0419    4.7196  -18.1242 N   0  0  0  0  0  0  0  0  0  0  0  0
   -8.8622    5.1459  -10.0482 N   0  0  0  0  0  0  0  0  0  0  0  0
   -9.1804    5.9052   -7.8728 O   0  0  0  0  0  0  0  0  0  0  0  0
   -7.2327    6.5614  -16.1827 O   0  0  0  0  0  0  0  0  0  0  0  0
   -9.8609    3.8043   -8.4609 O   0  0  0  0  0  0  0  0  0  0  0  0
  -11.5665    3.1924  -19.2753 Br  0  0  0  0  0  0  0  0  0  0  0  0
   -8.4081    3.7511  -20.0074 H   0  0  0  0  0  0  0  0  0  0  0  0
   -6.8776    4.2004  -15.1797 H   0  0  0  0  0  0  0  0  0  0  0  0
   -8.5100    3.8901  -14.6089 H   0  0  0  0  0  0  0  0  0  0  0  0
  -10.3451    6.0202  -15.0585 H   0  0  0  0  0  0  0  0  0  0  0  0
   -9.6591    7.4186  -15.8744 H   0  0  0  0  0  0  0  0  0  0  0  0
   -7.0800    4.5213  -12.7525 H   0  0  0  0  0  0  0  0  0  0  0  0
   -6.5255    5.9592  -13.5753 H   0  0  0  0  0  0  0  0  0  0  0  0
   -8.2202    7.9406  -14.0077 H   0  0  0  0  0  0  0  0  0  0  0  0
   -9.8708    7.7753  -13.4428 H   0  0  0  0  0  0  0  0  0  0  0  0
   -8.7692    7.6536  -11.2304 H   0  0  0  0  0  0  0  0  0  0  0  0
   -7.1185    7.4843  -11.8044 H   0  0  0  0  0  0  0  0  0  0  0  0
  -10.1006    4.6461  -13.1793 H   0  0  0  0  0  0  0  0  0  0  0  0
  -10.5868    5.9206  -12.0824 H   0  0  0  0  0  0  0  0  0  0  0  0
   -6.8723    5.3367  -10.5908 H   0  0  0  0  0  0  0  0  0  0  0  0
   -7.4338    6.5997   -9.5026 H   0  0  0  0  0  0  0  0  0  0  0  0
  -10.3366    3.8528  -10.8571 H   0  0  0  0  0  0  0  0  0  0  0  0
   -8.6930    3.6080  -11.4279 H   0  0  0  0  0  0  0  0  0  0  0  0
   -7.8085    4.5729   -6.9027 H   0  0  0  0  0  0  0  0  0  0  0  0
   -9.3243    4.6278   -5.9746 H   0  0  0  0  0  0  0  0  0  0  0  0
   -8.0896    3.3969   -5.6309 H   0  0  0  0  0  0  0  0  0  0  0  0
  -10.7714    1.4889   -7.5062 H   0  0  0  0  0  0  0  0  0  0  0  0
  -11.1140    2.7975   -6.3886 H   0  0  0  0  0  0  0  0  0  0  0  0
   -9.9026    1.5702   -5.9576 H   0  0  0  0  0  0  0  0  0  0  0  0
   -8.6347    1.4517   -8.8342 H   0  0  0  0  0  0  0  0  0  0  0  0
   -7.4103    2.7213   -8.6190 H   0  0  0  0  0  0  0  0  0  0  0  0
   -7.6799    1.4925   -7.3621 H   0  0  0  0  0  0  0  0  0  0  0  0
   -6.5783    6.0447  -18.7204 H   0  0  0  0  0  0  0  0  0  0  0  0
   -6.1661    5.0475  -17.2842 H   0  0  0  0  0  0  0  0  0  0  0  0
   -6.1593    4.3069  -18.9049 H   0  0  0  0  0  0  0  0  0  0  0  0
   -6.9280    6.9988  -15.3726 H   0  0  0  0  0  0  0  0  0  0  0  0
  1  2  2  0  0  0  0
  1 21  1  0  0  0  0
  2 20  1  0  0  0  0
  2 26  1  0  0  0  0
  3 13  1  0  0  0  0
  3 20  2  0  0  0  0
  3 21  1  0  0  0  0
  4 22  1  0  0  0  0
  4 23  2  0  0  0  0
  4 25  1  0  0  0  0
  5  7  1  0  0  0  0
  5 13  1  0  0  0  0
  6  8  1  0  0  0  0
  6 13  1  0  0  0  0
  7 14  1  0  0  0  0
  8 14  1  0  0  0  0
  9 11  1  0  0  0  0
  9 14  1  0  0  0  0
 10 12  1  0  0  0  0
 10 14  1  0  0  0  0
 11 22  1  0  0  0  0
 12 22  1  0  0  0  0
 13 24  1  0  0  0  0
 15 19  1  0  0  0  0
 16 19  1  0  0  0  0
 17 19  1  0  0  0  0
 18 21  1  0  0  0  0
 19 25  1  0  0  0  0
  1 27  1  0  0  0  0
  5 28  1  0  0  0  0
  5 29  1  0  0  0  0
  6 30  1  0  0  0  0
  6 31  1  0  0  0  0
  7 32  1  0  0  0  0
  7 33  1  0  0  0  0
  8 34  1  0  0  0  0
  8 35  1  0  0  0  0
  9 36  1  0  0  0  0
  9 37  1  0  0  0  0
 10 38  1  0  0  0  0
 10 39  1  0  0  0  0
 11 40  1  0  0  0  0
 11 41  1  0  0  0  0
 12 42  1  0  0  0  0
 12 43  1  0  0  0  0
 15 44  1  0  0  0  0
 15 45  1  0  0  0  0
 15 46  1  0  0  0  0
 16 47  1  0  0  0  0
 16 48  1  0  0  0  0
 16 49  1  0  0  0  0
 17 50  1  0  0  0  0
 17 51  1  0  0  0  0
 17 52  1  0  0  0  0
 18 53  1  0  0  0  0
 18 54  1  0  0  0  0
 18 55  1  0  0  0  0
 24 56  1  0  0  0  0
M  END
> <id>
EN300-7428367

> <smiles>
CN1C=C(Br)N=C1C2(O)CCC3(CCN(CC3)C(=O)OC(C)(C)C)CC2

> <IUPAC Name>
tert-butyl 9-(4-bromo-1-methyl-1H-imidazol-2-yl)-9-hydroxy-3-azaspiro[5.5]undecane-3-carboxylate

> <CAS>
2309468-24-2

> <URL>
https://www.enaminestore.com/catalog/EN300-7428367

> <ROCS_ShapeQuery>
_x0404_0B

> <ROCS_TanimotoCombo>
0.439 

> <ROCS_ShapeTanimoto>
0.392 

> <ROCS_ColorTanimoto>
0.048 

> <ROCS_RefTversky>
0.342 

> <ROCS_RefColorTversky>
0.054 

> <ROCS_RefTverskyCombo>
0.396 

> <ROCS_FitTversky>
1.588 

> <ROCS_FitColorTversky>
0.292 

> <ROCS_FitTverskyCombo>
1.880 

> <ROCS_ColorScore>
-3.881

> <ROCS_Overlap>
2287.073

> <ROCS_Rank>
226                 

$$$$
untitled-dbase-24969_72
  -OEChem-08222312023D

 50 52  0     0  0  0  0  0  0999 V2000
   -9.2081    4.3061  -17.3027 C   0  0  0  0  0  0  0  0  0  0  0  0
   -8.1383    4.5685  -18.1585 C   0  0  0  0  0  0  0  0  0  0  0  0
   -7.2186    6.1158  -16.5453 C   0  0  0  0  0  0  0  0  0  0  0  0
   -9.2769    4.9525  -16.0655 C   0  0  0  0  0  0  0  0  0  0  0  0
   -8.2775    5.8444  -15.6768 C   0  0  0  0  0  0  0  0  0  0  0  0
   -7.1476    5.4752  -17.7828 C   0  0  0  0  0  0  0  0  0  0  0  0
  -10.4238    4.7289  -15.1685 C   0  0  0  0  0  0  0  0  0  0  0  0
   -8.5718    5.1885   -9.2306 C   0  0  0  0  0  0  0  0  0  0  0  0
  -10.4733    5.5907  -13.9346 C   0  0  0  0  0  0  0  0  0  0  0  0
   -8.3103    4.6870  -12.8463 C   0  0  0  0  0  0  0  0  0  0  0  0
   -9.1315    6.9920  -12.3201 C   0  0  0  0  0  0  0  0  0  0  0  0
   -8.9020    4.1895  -11.5289 C   0  0  0  0  0  0  0  0  0  0  0  0
   -9.7234    6.4716  -11.0140 C   0  0  0  0  0  0  0  0  0  0  0  0
   -9.0584    5.9133  -13.4271 C   0  0  0  0  0  0  0  0  0  0  0  0
  -10.1420    3.5793   -7.8765 C   0  0  0  0  0  0  0  0  0  0  0  0
   -8.4640    1.7396   -8.2067 C   0  0  0  0  0  0  0  0  0  0  0  0
   -7.9930    3.5822   -6.5663 C   0  0  0  0  0  0  0  0  0  0  0  0
   -6.0967    5.0435  -19.8721 C   0  0  0  0  0  0  0  0  0  0  0  0
   -8.6565    3.2221   -7.8948 C   0  0  0  0  0  0  0  0  0  0  0  0
   -9.0146    5.2786  -10.5543 N   0  0  0  0  0  0  0  0  0  0  0  0
  -11.3099    3.9310  -15.4502 O   0  0  0  0  0  0  0  0  0  0  0  0
   -8.6621    6.0967   -8.4064 O   0  0  0  0  0  0  0  0  0  0  0  0
   -8.2675    6.5049  -14.4792 O   0  0  0  0  0  0  0  0  0  0  0  0
   -6.1090    5.7341  -18.6237 O   0  0  0  0  0  0  0  0  0  0  0  0
   -8.0210    3.9687   -8.9390 O   0  0  0  0  0  0  0  0  0  0  0  0
   -9.9775    3.6075  -17.6192 H   0  0  0  0  0  0  0  0  0  0  0  0
   -8.0862    4.0677  -19.1216 H   0  0  0  0  0  0  0  0  0  0  0  0
   -6.4412    6.8184  -16.2548 H   0  0  0  0  0  0  0  0  0  0  0  0
  -11.0075    6.5068  -14.2129 H   0  0  0  0  0  0  0  0  0  0  0  0
  -11.0502    5.0720  -13.1615 H   0  0  0  0  0  0  0  0  0  0  0  0
   -7.2488    4.9207  -12.6688 H   0  0  0  0  0  0  0  0  0  0  0  0
   -8.3228    3.8622  -13.5791 H   0  0  0  0  0  0  0  0  0  0  0  0
   -9.7279    7.8498  -12.6691 H   0  0  0  0  0  0  0  0  0  0  0  0
   -8.1205    7.3734  -12.1070 H   0  0  0  0  0  0  0  0  0  0  0  0
   -9.8828    3.7371  -11.7119 H   0  0  0  0  0  0  0  0  0  0  0  0
   -8.2673    3.4155  -11.0809 H   0  0  0  0  0  0  0  0  0  0  0  0
   -9.6401    7.2251  -10.2197 H   0  0  0  0  0  0  0  0  0  0  0  0
  -10.7915    6.2734  -11.1526 H   0  0  0  0  0  0  0  0  0  0  0  0
  -10.2844    4.6427   -7.6529 H   0  0  0  0  0  0  0  0  0  0  0  0
  -10.6219    3.3583   -8.8354 H   0  0  0  0  0  0  0  0  0  0  0  0
  -10.6677    3.0251   -7.0905 H   0  0  0  0  0  0  0  0  0  0  0  0
   -7.3996    1.4788   -8.2209 H   0  0  0  0  0  0  0  0  0  0  0  0
   -8.8547    1.4960   -9.2013 H   0  0  0  0  0  0  0  0  0  0  0  0
   -8.9670    1.1034   -7.4713 H   0  0  0  0  0  0  0  0  0  0  0  0
   -6.9274    3.3261   -6.5792 H   0  0  0  0  0  0  0  0  0  0  0  0
   -8.0891    4.6499   -6.3439 H   0  0  0  0  0  0  0  0  0  0  0  0
   -8.4378    3.0133   -5.7418 H   0  0  0  0  0  0  0  0  0  0  0  0
   -5.2156    5.3415  -20.4455 H   0  0  0  0  0  0  0  0  0  0  0  0
   -7.0057    5.2817  -20.4302 H   0  0  0  0  0  0  0  0  0  0  0  0
   -6.0590    3.9680  -19.6830 H   0  0  0  0  0  0  0  0  0  0  0  0
  1  2  1  0  0  0  0
  1  4  2  0  0  0  0
  2  6  2  0  0  0  0
  3  5  2  0  0  0  0
  3  6  1  0  0  0  0
  4  5  1  0  0  0  0
  4  7  1  0  0  0  0
  5 23  1  0  0  0  0
  6 24  1  0  0  0  0
  7  9  1  0  0  0  0
  7 21  2  0  0  0  0
  8 20  1  0  0  0  0
  8 22  2  0  0  0  0
  8 25  1  0  0  0  0
  9 14  1  0  0  0  0
 10 12  1  0  0  0  0
 10 14  1  0  0  0  0
 11 13  1  0  0  0  0
 11 14  1  0  0  0  0
 12 20  1  0  0  0  0
 13 20  1  0  0  0  0
 14 23  1  0  0  0  0
 15 19  1  0  0  0  0
 16 19  1  0  0  0  0
 17 19  1  0  0  0  0
 18 24  1  0  0  0  0
 19 25  1  0  0  0  0
  1 26  1  0  0  0  0
  2 27  1  0  0  0  0
  3 28  1  0  0  0  0
  9 29  1  0  0  0  0
  9 30  1  0  0  0  0
 10 31  1  0  0  0  0
 10 32  1  0  0  0  0
 11 33  1  0  0  0  0
 11 34  1  0  0  0  0
 12 35  1  0  0  0  0
 12 36  1  0  0  0  0
 13 37  1  0  0  0  0
 13 38  1  0  0  0  0
 15 39  1  0  0  0  0
 15 40  1  0  0  0  0
 15 41  1  0  0  0  0
 16 42  1  0  0  0  0
 16 43  1  0  0  0  0
 16 44  1  0  0  0  0
 17 45  1  0  0  0  0
 17 46  1  0  0  0  0
 17 47  1  0  0  0  0
 18 48  1  0  0  0  0
 18 49  1  0  0  0  0
 18 50  1  0  0  0  0
M  END
> <id>
EN300-338170

> <smiles>
COC=1C=CC=2C(=O)CC3(CCN(CC3)C(=O)OC(C)(C)C)OC2C1

> <MDLNUMBER>
MFCD10699508

> <IUPAC Name>
tert-butyl 7-methoxy-4-oxo-3,4-dihydrospiro[1-benzopyran-2,4'-piperidine]-1'-carboxylate

> <CAS>
956604-98-1

> <URL>
https://www.enaminestore.com/catalog/EN300-338170

> <ROCS_ShapeQuery>
_x0404_0B

> <ROCS_TanimotoCombo>
0.439 

> <ROCS_ShapeTanimoto>
0.378 

> <ROCS_ColorTanimoto>
0.061 

> <ROCS_RefTversky>
0.333 

> <ROCS_RefColorTversky>
0.067 

> <ROCS_RefTverskyCombo>
0.400 

> <ROCS_FitTversky>
1.561 

> <ROCS_FitColorTversky>
0.423 

> <ROCS_FitTverskyCombo>
1.983 

> <ROCS_ColorScore>
-4.812

> <ROCS_Overlap>
2225.323

> <ROCS_Rank>
227                 

$$$$
untitled-dbase-148266_88
  -OEChem-08222312023D

 32 34  0     0  0  0  0  0  0999 V2000
   -8.7851    5.1188  -15.6129 C   0  0  0  0  0  0  0  0  0  0  0  0
   -8.6621    4.7565  -16.9542 C   0  0  0  0  0  0  0  0  0  0  0  0
   -9.0675    2.7295  -10.1760 C   0  0  0  0  0  0  0  0  0  0  0  0
   -7.6935    2.6437  -16.2946 C   0  0  0  0  0  0  0  0  0  0  0  0
   -9.1766    4.2061   -8.2646 C   0  0  0  0  0  0  0  0  0  0  0  0
   -8.3622    4.2437  -14.6124 C   0  0  0  0  0  0  0  0  0  0  0  0
   -8.8163    5.1129  -10.4713 C   0  0  0  0  0  0  0  0  0  0  0  0
   -8.8630    3.8292  -11.0100 C   0  0  0  0  0  0  0  0  0  0  0  0
   -8.1164    3.5189  -17.2951 C   0  0  0  0  0  0  0  0  0  0  0  0
   -9.2240    2.9196   -8.8029 C   0  0  0  0  0  0  0  0  0  0  0  0
   -7.8164    3.0061  -14.9533 C   0  0  0  0  0  0  0  0  0  0  0  0
   -8.9727    5.3075   -9.0967 C   0  0  0  0  0  0  0  0  0  0  0  0
   -8.5016    4.6502  -13.2028 C   0  0  0  0  0  0  0  0  0  0  0  0
   -8.6017    6.2552  -11.3730 C   0  0  0  0  0  0  0  0  0  0  0  0
   -8.4444    5.9367  -12.8126 C   0  0  0  0  0  0  0  0  0  0  0  0
   -8.5570    7.4058  -10.9587 O   0  0  0  0  0  0  0  0  0  0  0  0
   -8.7164    3.5791  -12.3500 O   0  0  0  0  0  0  0  0  0  0  0  0
   -7.9964    3.1654  -18.6039 O   0  0  0  0  0  0  0  0  0  0  0  0
   -9.4236    1.8483   -7.9869 O   0  0  0  0  0  0  0  0  0  0  0  0
   -7.3942    2.1322  -13.9954 O   0  0  0  0  0  0  0  0  0  0  0  0
   -8.9351    6.5413   -8.5205 O   0  0  0  0  0  0  0  0  0  0  0  0
   -8.2620    6.9822  -13.6917 O   0  0  0  0  0  0  0  0  0  0  0  0
   -9.2121    6.0879  -15.3646 H   0  0  0  0  0  0  0  0  0  0  0  0
   -8.9926    5.4424  -17.7295 H   0  0  0  0  0  0  0  0  0  0  0  0
   -9.1051    1.7263  -10.5931 H   0  0  0  0  0  0  0  0  0  0  0  0
   -7.2669    1.6797  -16.5611 H   0  0  0  0  0  0  0  0  0  0  0  0
   -9.2993    4.3488   -7.1935 H   0  0  0  0  0  0  0  0  0  0  0  0
   -8.3317    3.8742  -19.1759 H   0  0  0  0  0  0  0  0  0  0  0  0
   -9.5138    2.1397   -7.0657 H   0  0  0  0  0  0  0  0  0  0  0  0
   -7.5373    2.5089  -13.1135 H   0  0  0  0  0  0  0  0  0  0  0  0
   -8.7887    7.2223   -9.1958 H   0  0  0  0  0  0  0  0  0  0  0  0
   -8.2508    7.8168  -13.2112 H   0  0  0  0  0  0  0  0  0  0  0  0
  1  2  1  0  0  0  0
  1  6  2  0  0  0  0
  2  9  2  0  0  0  0
  3  8  2  0  0  0  0
  3 10  1  0  0  0  0
  4  9  1  0  0  0  0
  4 11  2  0  0  0  0
  5 10  2  0  0  0  0
  5 12  1  0  0  0  0
  6 11  1  0  0  0  0
  6 13  1  0  0  0  0
  7  8  1  0  0  0  0
  7 12  2  0  0  0  0
  7 14  1  0  0  0  0
  8 17  1  0  0  0  0
  9 18  1  0  0  0  0
 10 19  1  0  0  0  0
 11 20  1  0  0  0  0
 12 21  1  0  0  0  0
 13 15  2  0  0  0  0
 13 17  1  0  0  0  0
 14 15  1  0  0  0  0
 14 16  2  0  0  0  0
 15 22  1  0  0  0  0
  1 23  1  0  0  0  0
  2 24  1  0  0  0  0
  3 25  1  0  0  0  0
  4 26  1  0  0  0  0
  5 27  1  0  0  0  0
 18 28  1  0  0  0  0
 19 29  1  0  0  0  0
 20 30  1  0  0  0  0
 21 31  1  0  0  0  0
 22 32  1  0  0  0  0
M  END
> <id>
EN300-7400825

> <smiles>
OC=1C=CC(=C(O)C1)C=2OC=3C=C(O)C=C(O)C3C(=O)C2O

> <MDLNUMBER>
MFCD00006826

> <IUPAC Name>
2-(2,4-dihydroxyphenyl)-3,5,7-trihydroxy-4H-chromen-4-one

> <CAS>
480-16-0

> <URL>
https://www.enaminestore.com/catalog/EN300-7400825

> <MP>
300-301

> <ROCS_ShapeQuery>
_x0404_0B

> <ROCS_TanimotoCombo>
0.439 

> <ROCS_ShapeTanimoto>
0.311 

> <ROCS_ColorTanimoto>
0.129 

> <ROCS_RefTversky>
0.284 

> <ROCS_RefColorTversky>
0.142 

> <ROCS_RefTverskyCombo>
0.426 

> <ROCS_FitTversky>
1.430 

> <ROCS_FitColorTversky>
0.572 

> <ROCS_FitTverskyCombo>
2.002 

> <ROCS_ColorScore>
-10.321

> <ROCS_Overlap>
1897.764

> <ROCS_Rank>
228                 

$$$$
untitled-dbase-148354_88
  -OEChem-08222312023D

 32 34  0     0  0  0  0  0  0999 V2000
   -8.7851    5.1188  -15.6129 C   0  0  0  0  0  0  0  0  0  0  0  0
   -8.6621    4.7565  -16.9542 C   0  0  0  0  0  0  0  0  0  0  0  0
   -9.0675    2.7295  -10.1760 C   0  0  0  0  0  0  0  0  0  0  0  0
   -7.6935    2.6437  -16.2946 C   0  0  0  0  0  0  0  0  0  0  0  0
   -9.1766    4.2061   -8.2646 C   0  0  0  0  0  0  0  0  0  0  0  0
   -8.3622    4.2437  -14.6124 C   0  0  0  0  0  0  0  0  0  0  0  0
   -8.8163    5.1129  -10.4713 C   0  0  0  0  0  0  0  0  0  0  0  0
   -8.8630    3.8292  -11.0100 C   0  0  0  0  0  0  0  0  0  0  0  0
   -8.1164    3.5189  -17.2951 C   0  0  0  0  0  0  0  0  0  0  0  0
   -9.2240    2.9196   -8.8029 C   0  0  0  0  0  0  0  0  0  0  0  0
   -7.8164    3.0061  -14.9533 C   0  0  0  0  0  0  0  0  0  0  0  0
   -8.9727    5.3075   -9.0967 C   0  0  0  0  0  0  0  0  0  0  0  0
   -8.5016    4.6502  -13.2028 C   0  0  0  0  0  0  0  0  0  0  0  0
   -8.6017    6.2552  -11.3730 C   0  0  0  0  0  0  0  0  0  0  0  0
   -8.4444    5.9367  -12.8126 C   0  0  0  0  0  0  0  0  0  0  0  0
   -8.5570    7.4058  -10.9587 O   0  0  0  0  0  0  0  0  0  0  0  0
   -8.7164    3.5791  -12.3500 O   0  0  0  0  0  0  0  0  0  0  0  0
   -7.9964    3.1654  -18.6039 O   0  0  0  0  0  0  0  0  0  0  0  0
   -9.4236    1.8483   -7.9869 O   0  0  0  0  0  0  0  0  0  0  0  0
   -7.3942    2.1322  -13.9954 O   0  0  0  0  0  0  0  0  0  0  0  0
   -8.9351    6.5413   -8.5205 O   0  0  0  0  0  0  0  0  0  0  0  0
   -8.2620    6.9822  -13.6917 O   0  0  0  0  0  0  0  0  0  0  0  0
   -9.2121    6.0879  -15.3646 H   0  0  0  0  0  0  0  0  0  0  0  0
   -8.9926    5.4424  -17.7295 H   0  0  0  0  0  0  0  0  0  0  0  0
   -9.1051    1.7263  -10.5931 H   0  0  0  0  0  0  0  0  0  0  0  0
   -7.2669    1.6797  -16.5611 H   0  0  0  0  0  0  0  0  0  0  0  0
   -9.2993    4.3488   -7.1935 H   0  0  0  0  0  0  0  0  0  0  0  0
   -8.3317    3.8742  -19.1759 H   0  0  0  0  0  0  0  0  0  0  0  0
   -9.5138    2.1397   -7.0657 H   0  0  0  0  0  0  0  0  0  0  0  0
   -7.5373    2.5089  -13.1135 H   0  0  0  0  0  0  0  0  0  0  0  0
   -8.7887    7.2223   -9.1958 H   0  0  0  0  0  0  0  0  0  0  0  0
   -8.2508    7.8168  -13.2112 H   0  0  0  0  0  0  0  0  0  0  0  0
  1  2  1  0  0  0  0
  1  6  2  0  0  0  0
  2  9  2  0  0  0  0
  3  8  2  0  0  0  0
  3 10  1  0  0  0  0
  4  9  1  0  0  0  0
  4 11  2  0  0  0  0
  5 10  2  0  0  0  0
  5 12  1  0  0  0  0
  6 11  1  0  0  0  0
  6 13  1  0  0  0  0
  7  8  1  0  0  0  0
  7 12  2  0  0  0  0
  7 14  1  0  0  0  0
  8 17  1  0  0  0  0
  9 18  1  0  0  0  0
 10 19  1  0  0  0  0
 11 20  1  0  0  0  0
 12 21  1  0  0  0  0
 13 15  2  0  0  0  0
 13 17  1  0  0  0  0
 14 15  1  0  0  0  0
 14 16  2  0  0  0  0
 15 22  1  0  0  0  0
  1 23  1  0  0  0  0
  2 24  1  0  0  0  0
  3 25  1  0  0  0  0
  4 26  1  0  0  0  0
  5 27  1  0  0  0  0
 18 28  1  0  0  0  0
 19 29  1  0  0  0  0
 20 30  1  0  0  0  0
 21 31  1  0  0  0  0
 22 32  1  0  0  0  0
M  END
> <id>
EN300-18550716

> <smiles>
O.OC=1C=CC(=C(O)C1)C=2OC=3C=C(O)C=C(O)C3C(=O)C2O

> <MDLNUMBER>
MFCD00217054

> <IUPAC Name>
2-(2,4-dihydroxyphenyl)-3,5,7-trihydroxy-4H-chromen-4-one hydrate

> <CAS>
6202-27-3

> <URL>
https://www.enaminestore.com/catalog/EN300-18550716

> <Saltdate>
O

> <MP>
300-301

> <ROCS_ShapeQuery>
_x0404_0B

> <ROCS_TanimotoCombo>
0.439 

> <ROCS_ShapeTanimoto>
0.311 

> <ROCS_ColorTanimoto>
0.129 

> <ROCS_RefTversky>
0.284 

> <ROCS_RefColorTversky>
0.142 

> <ROCS_RefTverskyCombo>
0.426 

> <ROCS_FitTversky>
1.430 

> <ROCS_FitColorTversky>
0.572 

> <ROCS_FitTverskyCombo>
2.002 

> <ROCS_ColorScore>
-10.321

> <ROCS_Overlap>
1897.764

> <ROCS_Rank>
229                 

$$$$
untitled-dbase-139537_6
  -OEChem-08222312023D

 41 44  0     0  0  0  0  0  0999 V2000
   -8.5183    5.3931  -14.3951 B   0  0  0  0  0  0  0  0  0  0  0  0
   -9.0882    1.9872   -7.9366 C   0  0  0  0  0  0  0  0  0  0  0  0
   -9.1700    2.8775   -6.8636 C   0  0  0  0  0  0  0  0  0  0  0  0
   -8.6790    6.8971  -12.3322 C   0  0  0  0  0  0  0  0  0  0  0  0
   -8.9743    2.4522   -9.2537 C   0  0  0  0  0  0  0  0  0  0  0  0
   -9.1423    4.2603   -7.0660 C   0  0  0  0  0  0  0  0  0  0  0  0
   -8.7931    7.1203  -10.9570 C   0  0  0  0  0  0  0  0  0  0  0  0
   -8.7261    4.4826  -12.0163 C   0  0  0  0  0  0  0  0  0  0  0  0
   -8.6458    5.6024  -12.8550 C   0  0  0  0  0  0  0  0  0  0  0  0
   -8.9440    3.8402   -9.4824 C   0  0  0  0  0  0  0  0  0  0  0  0
   -8.8408    4.6823  -10.6281 C   0  0  0  0  0  0  0  0  0  0  0  0
   -9.0289    4.6930   -8.3863 C   0  0  0  0  0  0  0  0  0  0  0  0
   -8.8706    5.9879  -10.1480 C   0  0  0  0  0  0  0  0  0  0  0  0
   -7.7743    5.6428  -16.5392 C   0  0  0  0  0  0  0  0  0  0  0  0
   -8.9108    4.5660  -16.4867 C   0  0  0  0  0  0  0  0  0  0  0  0
   -6.5017    5.1955  -17.2723 C   0  0  0  0  0  0  0  0  0  0  0  0
   -8.2011    7.0093  -17.1215 C   0  0  0  0  0  0  0  0  0  0  0  0
   -8.4258    3.1035  -16.6075 C   0  0  0  0  0  0  0  0  0  0  0  0
  -10.0377    4.7739  -17.5083 C   0  0  0  0  0  0  0  0  0  0  0  0
   -8.9849    5.9928   -8.7907 O   0  0  0  0  0  0  0  0  0  0  0  0
   -7.4343    5.8642  -15.1315 O   0  0  0  0  0  0  0  0  0  0  0  0
   -9.4791    4.7196  -15.1451 O   0  0  0  0  0  0  0  0  0  0  0  0
   -9.1121    0.9169   -7.7489 H   0  0  0  0  0  0  0  0  0  0  0  0
   -9.2569    2.4886   -5.8521 H   0  0  0  0  0  0  0  0  0  0  0  0
   -8.6171    7.7682  -12.9838 H   0  0  0  0  0  0  0  0  0  0  0  0
   -8.9110    1.7466  -10.0768 H   0  0  0  0  0  0  0  0  0  0  0  0
   -9.2053    4.9571   -6.2385 H   0  0  0  0  0  0  0  0  0  0  0  0
   -8.8205    8.1217  -10.5440 H   0  0  0  0  0  0  0  0  0  0  0  0
   -8.7015    3.4690  -12.4102 H   0  0  0  0  0  0  0  0  0  0  0  0
   -5.7827    6.0049  -17.2532 H   0  0  0  0  0  0  0  0  0  0  0  0
   -6.7546    4.9485  -18.2957 H   0  0  0  0  0  0  0  0  0  0  0  0
   -6.0948    4.3263  -16.7707 H   0  0  0  0  0  0  0  0  0  0  0  0
   -7.3510    7.6852  -17.1168 H   0  0  0  0  0  0  0  0  0  0  0  0
   -8.9998    7.4265  -16.5153 H   0  0  0  0  0  0  0  0  0  0  0  0
   -8.5516    6.8739  -18.1406 H   0  0  0  0  0  0  0  0  0  0  0  0
   -9.2801    2.4345  -16.5608 H   0  0  0  0  0  0  0  0  0  0  0  0
   -7.7451    2.8802  -15.7911 H   0  0  0  0  0  0  0  0  0  0  0  0
   -7.9120    2.9705  -17.5552 H   0  0  0  0  0  0  0  0  0  0  0  0
  -10.7679    3.9830  -17.3913 H   0  0  0  0  0  0  0  0  0  0  0  0
   -9.6170    4.7452  -18.5056 H   0  0  0  0  0  0  0  0  0  0  0  0
  -10.5011    5.7359  -17.3288 H   0  0  0  0  0  0  0  0  0  0  0  0
  1  9  1  0  0  0  0
  1 21  1  0  0  0  0
  1 22  1  0  0  0  0
  2  3  2  0  0  0  0
  2  5  1  0  0  0  0
  3  6  1  0  0  0  0
  4  7  1  0  0  0  0
  4  9  2  0  0  0  0
  5 10  2  0  0  0  0
  6 12  2  0  0  0  0
  7 13  2  0  0  0  0
  8  9  1  0  0  0  0
  8 11  2  0  0  0  0
 10 11  1  0  0  0  0
 10 12  1  0  0  0  0
 11 13  1  0  0  0  0
 12 20  1  0  0  0  0
 13 20  1  0  0  0  0
 14 15  1  0  0  0  0
 14 16  1  0  0  0  0
 14 17  1  0  0  0  0
 14 21  1  0  0  0  0
 15 18  1  0  0  0  0
 15 19  1  0  0  0  0
 15 22  1  0  0  0  0
  2 23  1  0  0  0  0
  3 24  1  0  0  0  0
  4 25  1  0  0  0  0
  5 26  1  0  0  0  0
  6 27  1  0  0  0  0
  7 28  1  0  0  0  0
  8 29  1  0  0  0  0
 16 30  1  0  0  0  0
 16 31  1  0  0  0  0
 16 32  1  0  0  0  0
 17 33  1  0  0  0  0
 17 34  1  0  0  0  0
 17 35  1  0  0  0  0
 18 36  1  0  0  0  0
 18 37  1  0  0  0  0
 18 38  1  0  0  0  0
 19 39  1  0  0  0  0
 19 40  1  0  0  0  0
 19 41  1  0  0  0  0
M  END
> <id>
EN300-1706222

> <smiles>
CC1(C)OB(OC1(C)C)C=2C=CC=3OC=4C=CC=CC4C3C2

> <MDLNUMBER>
MFCD18374015

> <IUPAC Name>
4,4,5,5-tetramethyl-2-{8-oxatricyclo[7.4.0.0,2,7]trideca-1(9),2(7),3,5,10,12-hexaen-4-yl}-1,3,2-dioxaborolane

> <CAS>
947770-80-1

> <Purity>
95

> <URL>
https://www.enaminestore.com/catalog/EN300-1706222

> <MP>
75-76

> <ROCS_ShapeQuery>
_x0404_0B

> <ROCS_TanimotoCombo>
0.439 

> <ROCS_ShapeTanimoto>
0.371 

> <ROCS_ColorTanimoto>
0.068 

> <ROCS_RefTversky>
0.324 

> <ROCS_RefColorTversky>
0.073 

> <ROCS_RefTverskyCombo>
0.397 

> <ROCS_FitTversky>
1.639 

> <ROCS_FitColorTversky>
0.504 

> <ROCS_FitTverskyCombo>
2.144 

> <ROCS_ColorScore>
-5.282

> <ROCS_Overlap>
2163.626

> <ROCS_Rank>
230                 

$$$$
untitled-dbase-91465_4606
  -OEChem-08222312023D

 50 52  0     0  0  0  0  0  0999 V2000
   -9.9578    3.8064  -18.0946 C   0  0  0  0  0  0  0  0  0  0  0  0
   -9.9468    4.4208  -16.8424 C   0  0  0  0  0  0  0  0  0  0  0  0
   -8.8632    3.9433  -18.9483 C   0  0  0  0  0  0  0  0  0  0  0  0
   -7.7466    5.3091  -17.2976 C   0  0  0  0  0  0  0  0  0  0  0  0
   -8.8412    5.1721  -16.4439 C   0  0  0  0  0  0  0  0  0  0  0  0
   -7.7576    4.6946  -18.5498 C   0  0  0  0  0  0  0  0  0  0  0  0
   -8.6035    5.1723   -8.7169 C   0  0  0  0  0  0  0  0  0  0  0  0
   -9.0360    6.6482  -11.9808 C   0  0  0  0  0  0  0  0  0  0  0  0
   -9.6498    4.1982  -12.0578 C   0  0  0  0  0  0  0  0  0  0  0  0
  -10.1066    5.6633  -14.1201 C   0  0  0  0  0  0  0  0  0  0  0  0
   -8.0374    5.1375  -13.8704 C   0  0  0  0  0  0  0  0  0  0  0  0
   -8.0689    6.3445  -10.8384 C   0  0  0  0  0  0  0  0  0  0  0  0
   -8.6617    3.9374  -10.9234 C   0  0  0  0  0  0  0  0  0  0  0  0
   -8.8289    5.8789  -15.0025 C   0  0  0  0  0  0  0  0  0  0  0  0
   -9.2051    5.4144  -12.8812 C   0  0  0  0  0  0  0  0  0  0  0  0
  -10.7332    3.8199   -7.9934 C   0  0  0  0  0  0  0  0  0  0  0  0
   -9.2537    1.8573   -7.4749 C   0  0  0  0  0  0  0  0  0  0  0  0
   -9.2906    3.8381   -5.9311 C   0  0  0  0  0  0  0  0  0  0  0  0
   -9.4055    3.3741   -7.3824 C   0  0  0  0  0  0  0  0  0  0  0  0
   -8.4729    5.1427  -10.1086 N   0  0  0  0  0  0  0  0  0  0  0  0
   -8.9224    6.1698   -8.0721 O   0  0  0  0  0  0  0  0  0  0  0  0
   -8.4655    7.2788  -15.1364 O   0  0  0  0  0  0  0  0  0  0  0  0
   -8.3376    3.9613   -8.1348 O   0  0  0  0  0  0  0  0  0  0  0  0
   -6.2750    4.8800  -19.7071 Br  0  0  0  0  0  0  0  0  0  0  0  0
  -10.8186    3.2212  -18.4046 H   0  0  0  0  0  0  0  0  0  0  0  0
  -10.8033    4.3095  -16.1831 H   0  0  0  0  0  0  0  0  0  0  0  0
   -8.8878    3.4581  -19.9206 H   0  0  0  0  0  0  0  0  0  0  0  0
   -6.8890    5.8968  -16.9786 H   0  0  0  0  0  0  0  0  0  0  0  0
   -9.9944    6.9734  -11.5628 H   0  0  0  0  0  0  0  0  0  0  0  0
   -8.6474    7.4877  -12.5711 H   0  0  0  0  0  0  0  0  0  0  0  0
   -9.7109    3.3110  -12.7015 H   0  0  0  0  0  0  0  0  0  0  0  0
  -10.6516    4.3526  -11.6383 H   0  0  0  0  0  0  0  0  0  0  0  0
  -10.7733    6.5307  -14.0568 H   0  0  0  0  0  0  0  0  0  0  0  0
  -10.7151    4.8007  -14.4235 H   0  0  0  0  0  0  0  0  0  0  0  0
   -7.8569    4.0758  -14.0778 H   0  0  0  0  0  0  0  0  0  0  0  0
   -7.0785    5.5910  -13.6001 H   0  0  0  0  0  0  0  0  0  0  0  0
   -7.0542    6.2505  -11.2367 H   0  0  0  0  0  0  0  0  0  0  0  0
   -8.0565    7.1673  -10.1134 H   0  0  0  0  0  0  0  0  0  0  0  0
   -9.0367    3.1552  -10.2547 H   0  0  0  0  0  0  0  0  0  0  0  0
   -7.7077    3.5948  -11.3326 H   0  0  0  0  0  0  0  0  0  0  0  0
  -10.8459    4.9080   -7.9290 H   0  0  0  0  0  0  0  0  0  0  0  0
  -10.8132    3.5236   -9.0444 H   0  0  0  0  0  0  0  0  0  0  0  0
  -11.5796    3.3885   -7.4469 H   0  0  0  0  0  0  0  0  0  0  0  0
   -8.3025    1.5330   -7.0376 H   0  0  0  0  0  0  0  0  0  0  0  0
   -9.2404    1.5294   -8.5206 H   0  0  0  0  0  0  0  0  0  0  0  0
  -10.0675    1.3376   -6.9589 H   0  0  0  0  0  0  0  0  0  0  0  0
   -8.3383    3.5185   -5.4926 H   0  0  0  0  0  0  0  0  0  0  0  0
   -9.3603    4.9276   -5.8493 H   0  0  0  0  0  0  0  0  0  0  0  0
  -10.0798    3.3915   -5.3156 H   0  0  0  0  0  0  0  0  0  0  0  0
   -9.1403    7.6604  -15.7077 H   0  0  0  0  0  0  0  0  0  0  0  0
  1  2  1  0  0  0  0
  1  3  2  0  0  0  0
  2  5  2  0  0  0  0
  3  6  1  0  0  0  0
  4  5  1  0  0  0  0
  4  6  2  0  0  0  0
  5 14  1  0  0  0  0
  6 24  1  0  0  0  0
  7 20  1  0  0  0  0
  7 21  2  0  0  0  0
  7 23  1  0  0  0  0
  8 12  1  0  0  0  0
  8 15  1  0  0  0  0
  9 13  1  0  0  0  0
  9 15  1  0  0  0  0
 10 14  1  0  0  0  0
 10 15  1  0  0  0  0
 11 14  1  0  0  0  0
 11 15  1  0  0  0  0
 12 20  1  0  0  0  0
 13 20  1  0  0  0  0
 14 22  1  0  0  0  0
 16 19  1  0  0  0  0
 17 19  1  0  0  0  0
 18 19  1  0  0  0  0
 19 23  1  0  0  0  0
  1 25  1  0  0  0  0
  2 26  1  0  0  0  0
  3 27  1  0  0  0  0
  4 28  1  0  0  0  0
  8 29  1  0  0  0  0
  8 30  1  0  0  0  0
  9 31  1  0  0  0  0
  9 32  1  0  0  0  0
 10 33  1  0  0  0  0
 10 34  1  0  0  0  0
 11 35  1  0  0  0  0
 11 36  1  0  0  0  0
 12 37  1  0  0  0  0
 12 38  1  0  0  0  0
 13 39  1  0  0  0  0
 13 40  1  0  0  0  0
 16 41  1  0  0  0  0
 16 42  1  0  0  0  0
 16 43  1  0  0  0  0
 17 44  1  0  0  0  0
 17 45  1  0  0  0  0
 17 46  1  0  0  0  0
 18 47  1  0  0  0  0
 18 48  1  0  0  0  0
 18 49  1  0  0  0  0
 22 50  1  0  0  0  0
M  END
> <id>
EN300-7428194

> <smiles>
CC(C)(C)OC(=O)N1CCC2(CC(O)(C2)C=3C=CC=C(Br)C3)CC1

> <IUPAC Name>
tert-butyl 2-(3-bromophenyl)-2-hydroxy-7-azaspiro[3.5]nonane-7-carboxylate

> <CAS>
2309460-03-3

> <URL>
https://www.enaminestore.com/catalog/EN300-7428194

> <ROCS_ShapeQuery>
_x0404_0B

> <ROCS_TanimotoCombo>
0.439 

> <ROCS_ShapeTanimoto>
0.375 

> <ROCS_ColorTanimoto>
0.064 

> <ROCS_RefTversky>
0.328 

> <ROCS_RefColorTversky>
0.070 

> <ROCS_RefTverskyCombo>
0.397 

> <ROCS_FitTversky>
1.627 

> <ROCS_FitColorTversky>
0.442 

> <ROCS_FitTverskyCombo>
2.070 

> <ROCS_ColorScore>
-5.035

> <ROCS_Overlap>
2187.444

> <ROCS_Rank>
231                 

$$$$
untitled-dbase-21286_0
  -OEChem-08222312023D

 45 48  0     1  0  0  0  0  0999 V2000
   -9.3433    2.2545   -8.0378 C   0  0  0  0  0  0  0  0  0  0  0  0
   -9.7297    3.2250   -7.2002 C   0  0  0  0  0  0  0  0  0  0  0  0
   -8.9020    2.5503   -9.3749 C   0  0  0  0  0  0  0  0  0  0  0  0
   -8.8597    3.8229   -9.7809 C   0  0  0  0  0  0  0  0  0  0  0  0
   -9.7108    4.6552   -7.6348 C   0  0  0  0  0  0  0  0  0  0  0  0
   -8.8900    5.8682  -14.4965 C   0  0  0  0  0  0  0  0  0  0  0  0
   -7.3273    4.4274  -15.8075 C   0  0  0  0  0  0  0  0  0  0  0  0
   -9.6520    4.8923  -16.6656 C   0  0  0  0  0  0  0  0  0  0  0  0
   -7.3772    5.3852  -10.8397 C   0  0  0  0  0  0  0  0  0  0  0  0
   -6.8061    5.4434  -16.8250 C   0  0  0  0  0  0  0  0  0  0  0  0
   -9.0330    5.8889  -17.6470 C   0  0  0  0  0  0  0  0  0  0  0  0
   -8.5418    4.1776  -12.6097 C   0  0  0  0  0  0  0  0  0  0  0  0
   -9.2035    6.3189   -9.4721 C   0  0  0  0  0  0  0  0  0  0  0  0
   -8.9946    6.7260  -12.1355 C   0  0  0  0  0  0  0  0  0  0  0  0
   -8.4543    4.3222  -11.1112 C   0  0  3  0  0  0  0  0  0  0  0  0
   -8.7848    4.6886  -15.4216 C   0  0  0  0  0  0  0  0  0  0  0  0
   -8.2707    6.5897  -10.7298 C   0  0  2  0  0  0  0  0  0  0  0  0
   -7.6667    5.5098  -18.0056 N   0  0  0  0  0  0  0  0  0  0  0  0
   -9.2464    4.8920   -8.9328 N   0  0  0  0  0  0  0  0  0  0  0  0
   -8.7661    5.5893  -13.1330 N   0  0  0  0  0  0  0  0  0  0  0  0
  -10.0925    5.5240   -6.8525 O   0  0  0  0  0  0  0  0  0  0  0  0
   -9.0721    6.9967  -14.9582 O   0  0  0  0  0  0  0  0  0  0  0  0
   -9.3580    1.2161   -7.7256 H   0  0  0  0  0  0  0  0  0  0  0  0
  -10.0661    3.0044   -6.1938 H   0  0  0  0  0  0  0  0  0  0  0  0
   -8.6155    1.7313  -10.0240 H   0  0  0  0  0  0  0  0  0  0  0  0
   -7.2544    3.4208  -16.2382 H   0  0  0  0  0  0  0  0  0  0  0  0
   -6.6844    4.4421  -14.9199 H   0  0  0  0  0  0  0  0  0  0  0  0
  -10.6535    5.2369  -16.3836 H   0  0  0  0  0  0  0  0  0  0  0  0
   -9.7760    3.9247  -17.1681 H   0  0  0  0  0  0  0  0  0  0  0  0
   -6.7970    5.2114   -9.9240 H   0  0  0  0  0  0  0  0  0  0  0  0
   -6.6404    5.4847  -11.6463 H   0  0  0  0  0  0  0  0  0  0  0  0
   -6.7158    6.4356  -16.3668 H   0  0  0  0  0  0  0  0  0  0  0  0
   -5.7991    5.1476  -17.1394 H   0  0  0  0  0  0  0  0  0  0  0  0
   -9.6409    5.9122  -18.5583 H   0  0  0  0  0  0  0  0  0  0  0  0
   -9.0487    6.9043  -17.2338 H   0  0  0  0  0  0  0  0  0  0  0  0
   -7.6214    3.7776  -13.0462 H   0  0  0  0  0  0  0  0  0  0  0  0
   -9.3801    3.5478  -12.9287 H   0  0  0  0  0  0  0  0  0  0  0  0
   -8.8497    6.9451   -8.6436 H   0  0  0  0  0  0  0  0  0  0  0  0
  -10.2374    6.6224   -9.6736 H   0  0  0  0  0  0  0  0  0  0  0  0
  -10.0792    6.8219  -12.0089 H   0  0  0  0  0  0  0  0  0  0  0  0
   -8.6526    7.6516  -12.6135 H   0  0  0  0  0  0  0  0  0  0  0  0
   -9.4877    4.7290  -11.1664 H   0  0  0  0  0  0  0  0  0  0  0  0
   -9.1658    3.8353  -14.8559 H   0  0  0  0  0  0  0  0  0  0  0  0
   -7.6844    7.4973  -10.5458 H   0  0  0  0  0  0  0  0  0  0  0  0
   -7.2883    6.1951  -18.6589 H   0  0  0  0  0  0  0  0  0  0  0  0
  1  2  2  0  0  0  0
  1  3  1  0  0  0  0
  2  5  1  0  0  0  0
  3  4  2  0  0  0  0
  4 15  1  0  0  0  0
  4 19  1  0  0  0  0
  5 19  1  0  0  0  0
  5 21  2  0  0  0  0
  6 16  1  0  0  0  0
  6 20  1  0  0  0  0
  6 22  2  0  0  0  0
  7 10  1  0  0  0  0
  7 16  1  0  0  0  0
  8 11  1  0  0  0  0
  8 16  1  0  0  0  0
  9 15  1  0  0  0  0
  9 17  1  0  0  0  0
 10 18  1  0  0  0  0
 11 18  1  0  0  0  0
 12 15  1  1  0  0  0
 12 20  1  0  0  0  0
 13 17  1  0  0  0  0
 13 19  1  0  0  0  0
 14 17  1  6  0  0  0
 14 20  1  0  0  0  0
  1 23  1  0  0  0  0
  2 24  1  0  0  0  0
  3 25  1  0  0  0  0
  7 26  1  0  0  0  0
  7 27  1  0  0  0  0
  8 28  1  0  0  0  0
  8 29  1  0  0  0  0
  9 30  1  0  0  0  0
  9 31  1  0  0  0  0
 10 32  1  0  0  0  0
 10 33  1  0  0  0  0
 11 34  1  0  0  0  0
 11 35  1  0  0  0  0
 12 36  1  0  0  0  0
 12 37  1  0  0  0  0
 13 38  1  0  0  0  0
 13 39  1  0  0  0  0
 14 40  1  0  0  0  0
 14 41  1  0  0  0  0
 15 42  1  0  0  0  0
 16 43  1  0  0  0  0
 17 44  1  0  0  0  0
 18 45  1  0  0  0  0
M  END
> <id>
EN300-303202

> <smiles>
O=C(C1CCNCC1)N2C[C@@H]3C[C@@H](C2)C4=CC=CC(=O)N4C3

> <MDLNUMBER>
MFCD18446993

> <IUPAC Name>
(1S,9S)-11-(piperidine-4-carbonyl)-7,11-diazatricyclo[7.3.1.0,2,7]trideca-2,4-dien-6-one

> <CAS>
1820572-47-1

> <URL>
https://www.enaminestore.com/catalog/EN300-303202

> <ROCS_ShapeQuery>
_x0404_0B

> <ROCS_TanimotoCombo>
0.439 

> <ROCS_ShapeTanimoto>
0.361 

> <ROCS_ColorTanimoto>
0.078 

> <ROCS_RefTversky>
0.317 

> <ROCS_RefColorTversky>
0.084 

> <ROCS_RefTverskyCombo>
0.401 

> <ROCS_FitTversky>
1.633 

> <ROCS_FitColorTversky>
0.526 

> <ROCS_FitTverskyCombo>
2.159 

> <ROCS_ColorScore>
-6.052

> <ROCS_Overlap>
2114.254

> <ROCS_Rank>
232                 

$$$$
untitled-dbase-106981_772
  -OEChem-08222312023D

 43 45  0     0  0  0  0  0  0999 V2000
  -10.1136    4.2055  -17.8638 C   0  0  0  0  0  0  0  0  0  0  0  0
   -9.9956    4.7540  -16.5916 C   0  0  0  0  0  0  0  0  0  0  0  0
   -8.9692    4.1146  -18.6396 C   0  0  0  0  0  0  0  0  0  0  0  0
   -8.7543    5.1887  -16.1405 C   0  0  0  0  0  0  0  0  0  0  0  0
   -7.6707    5.0537  -16.9933 C   0  0  0  0  0  0  0  0  0  0  0  0
   -8.7130    5.2499   -9.2258 C   0  0  0  0  0  0  0  0  0  0  0  0
   -7.6627    5.0737  -13.6721 C   0  0  0  0  0  0  0  0  0  0  0  0
   -9.7888    5.4583  -13.6540 C   0  0  0  0  0  0  0  0  0  0  0  0
   -8.5166    6.3268  -11.5708 C   0  0  0  0  0  0  0  0  0  0  0  0
   -8.9018    4.1950  -11.5636 C   0  0  0  0  0  0  0  0  0  0  0  0
   -8.6344    5.8186  -14.6722 C   0  0  0  0  0  0  0  0  0  0  0  0
   -8.7188    5.2547  -12.6111 C   0  0  0  0  0  0  0  0  0  0  0  0
  -10.4739    3.0534   -8.7511 C   0  0  0  0  0  0  0  0  0  0  0  0
   -8.5559    2.0263   -7.4959 C   0  0  0  0  0  0  0  0  0  0  0  0
   -9.5527    4.1913   -6.7039 C   0  0  0  0  0  0  0  0  0  0  0  0
   -9.2202    3.3332   -7.9236 C   0  0  0  0  0  0  0  0  0  0  0  0
   -7.7464    4.5260  -18.2357 N   0  0  0  0  0  0  0  0  0  0  0  0
   -8.7097    5.2641  -10.5930 N   0  0  0  0  0  0  0  0  0  0  0  0
   -9.0574    6.1983   -8.5262 O   0  0  0  0  0  0  0  0  0  0  0  0
   -8.3692    7.2453  -14.7491 O   0  0  0  0  0  0  0  0  0  0  0  0
   -8.2845    4.0454   -8.7407 O   0  0  0  0  0  0  0  0  0  0  0  0
   -5.9417    5.6288  -16.4380 Br  0  0  0  0  0  0  0  0  0  0  0  0
  -11.0711    3.8600  -18.2365 H   0  0  0  0  0  0  0  0  0  0  0  0
  -10.8750    4.8388  -15.9593 H   0  0  0  0  0  0  0  0  0  0  0  0
   -9.0079    3.6945  -19.6392 H   0  0  0  0  0  0  0  0  0  0  0  0
   -7.4595    4.0296  -13.9395 H   0  0  0  0  0  0  0  0  0  0  0  0
   -6.7060    5.5736  -13.4918 H   0  0  0  0  0  0  0  0  0  0  0  0
  -10.5072    6.2609  -13.4599 H   0  0  0  0  0  0  0  0  0  0  0  0
  -10.3487    4.5518  -13.9148 H   0  0  0  0  0  0  0  0  0  0  0  0
   -7.5206    6.7742  -11.5159 H   0  0  0  0  0  0  0  0  0  0  0  0
   -9.2857    7.1014  -11.5101 H   0  0  0  0  0  0  0  0  0  0  0  0
   -9.8935    3.7395  -11.5006 H   0  0  0  0  0  0  0  0  0  0  0  0
   -8.1249    3.4283  -11.5068 H   0  0  0  0  0  0  0  0  0  0  0  0
  -10.9536    3.9890   -9.0601 H   0  0  0  0  0  0  0  0  0  0  0  0
  -10.2433    2.4683   -9.6474 H   0  0  0  0  0  0  0  0  0  0  0  0
  -11.2173    2.5049   -8.1614 H   0  0  0  0  0  0  0  0  0  0  0  0
   -7.6559    2.2223   -6.9019 H   0  0  0  0  0  0  0  0  0  0  0  0
   -8.2298    1.4501   -8.3693 H   0  0  0  0  0  0  0  0  0  0  0  0
   -9.2337    1.4037   -6.9031 H   0  0  0  0  0  0  0  0  0  0  0  0
   -8.6536    4.3921   -6.1101 H   0  0  0  0  0  0  0  0  0  0  0  0
   -9.9966    5.1492   -6.9936 H   0  0  0  0  0  0  0  0  0  0  0  0
  -10.2518    3.6702   -6.0398 H   0  0  0  0  0  0  0  0  0  0  0  0
   -8.3127    7.5394  -13.8340 H   0  0  0  0  0  0  0  0  0  0  0  0
  1  2  1  0  0  0  0
  1  3  2  0  0  0  0
  2  4  2  0  0  0  0
  3 17  1  0  0  0  0
  4  5  1  0  0  0  0
  4 11  1  0  0  0  0
  5 17  2  0  0  0  0
  5 22  1  0  0  0  0
  6 18  1  0  0  0  0
  6 19  2  0  0  0  0
  6 21  1  0  0  0  0
  7 11  1  0  0  0  0
  7 12  1  0  0  0  0
  8 11  1  0  0  0  0
  8 12  1  0  0  0  0
  9 12  1  0  0  0  0
  9 18  1  0  0  0  0
 10 12  1  0  0  0  0
 10 18  1  0  0  0  0
 11 20  1  0  0  0  0
 13 16  1  0  0  0  0
 14 16  1  0  0  0  0
 15 16  1  0  0  0  0
 16 21  1  0  0  0  0
  1 23  1  0  0  0  0
  2 24  1  0  0  0  0
  3 25  1  0  0  0  0
  7 26  1  0  0  0  0
  7 27  1  0  0  0  0
  8 28  1  0  0  0  0
  8 29  1  0  0  0  0
  9 30  1  0  0  0  0
  9 31  1  0  0  0  0
 10 32  1  0  0  0  0
 10 33  1  0  0  0  0
 13 34  1  0  0  0  0
 13 35  1  0  0  0  0
 13 36  1  0  0  0  0
 14 37  1  0  0  0  0
 14 38  1  0  0  0  0
 14 39  1  0  0  0  0
 15 40  1  0  0  0  0
 15 41  1  0  0  0  0
 15 42  1  0  0  0  0
 20 43  1  0  0  0  0
M  END
> <id>
EN300-7428223

> <smiles>
CC(C)(C)OC(=O)N1CC2(C1)CC(O)(C2)C=3C=CC=NC3Br

> <IUPAC Name>
tert-butyl 6-(2-bromopyridin-3-yl)-6-hydroxy-2-azaspiro[3.3]heptane-2-carboxylate

> <CAS>
2309476-15-9

> <URL>
https://www.enaminestore.com/catalog/EN300-7428223

> <ROCS_ShapeQuery>
_x0404_0B

> <ROCS_TanimotoCombo>
0.439 

> <ROCS_ShapeTanimoto>
0.376 

> <ROCS_ColorTanimoto>
0.063 

> <ROCS_RefTversky>
0.325 

> <ROCS_RefColorTversky>
0.070 

> <ROCS_RefTverskyCombo>
0.395 

> <ROCS_FitTversky>
1.701 

> <ROCS_FitColorTversky>
0.407 

> <ROCS_FitTverskyCombo>
2.108 

> <ROCS_ColorScore>
-5.030

> <ROCS_Overlap>
2171.274

> <ROCS_Rank>
233                 

$$$$
untitled-dbase-123112_608
  -OEChem-08222312023D

 47 49  0     0  0  0  0  0  0999 V2000
   -9.1261    4.7089   -8.0684 C   0  0  0  0  0  0  0  0  0  0  0  0
   -8.6395    5.0224  -10.1731 C   0  0  0  0  0  0  0  0  0  0  0  0
   -8.6392    6.2143  -15.6971 C   0  0  0  0  0  0  0  0  0  0  0  0
   -9.4469    3.9533   -6.8312 C   0  0  0  0  0  0  0  0  0  0  0  0
   -9.5929    4.5089  -12.4461 C   0  0  0  0  0  0  0  0  0  0  0  0
   -7.3746    5.7816  -12.2625 C   0  0  0  0  0  0  0  0  0  0  0  0
   -8.7868    2.6271   -9.3712 C   0  0  0  0  0  0  0  0  0  0  0  0
   -9.3092    4.5484  -13.9433 C   0  0  0  0  0  0  0  0  0  0  0  0
   -8.0743    6.6346  -13.3174 C   0  0  0  0  0  0  0  0  0  0  0  0
   -9.4231    1.9260   -8.1655 C   0  0  0  0  0  0  0  0  0  0  0  0
   -8.3077    4.7267  -11.6258 C   0  0  0  0  0  0  0  0  0  0  0  0
   -6.4609    5.7392  -17.4897 C   0  0  0  0  0  0  0  0  0  0  0  0
   -7.9812    4.0796  -18.6048 C   0  0  0  0  0  0  0  0  0  0  0  0
   -8.6099    6.5106  -18.5486 C   0  0  0  0  0  0  0  0  0  0  0  0
   -7.9122    5.3757  -17.8002 C   0  0  0  0  0  0  0  0  0  0  0  0
   -9.0788    6.0077   -8.2751 N   0  0  0  0  0  0  0  0  0  0  0  0
   -8.7682    6.2053   -9.6110 N   0  0  0  0  0  0  0  0  0  0  0  0
   -8.8596    4.0648   -9.2427 N   0  0  0  0  0  0  0  0  0  0  0  0
   -8.9955    2.5548   -6.9083 N   0  0  0  0  0  0  0  0  0  0  0  0
   -8.6811    5.8063  -14.3602 N   0  0  0  0  0  0  0  0  0  0  0  0
   -8.6322    7.3872  -16.0655 O   0  0  0  0  0  0  0  0  0  0  0  0
   -8.6007    5.1535  -16.5643 O   0  0  0  0  0  0  0  0  0  0  0  0
   -8.9776    4.4483   -5.9729 H   0  0  0  0  0  0  0  0  0  0  0  0
  -10.5292    3.9640   -6.6656 H   0  0  0  0  0  0  0  0  0  0  0  0
  -10.3397    5.2768  -12.1952 H   0  0  0  0  0  0  0  0  0  0  0  0
  -10.0444    3.5419  -12.1849 H   0  0  0  0  0  0  0  0  0  0  0  0
   -6.5021    5.2800  -12.7189 H   0  0  0  0  0  0  0  0  0  0  0  0
   -6.9585    6.4410  -11.4777 H   0  0  0  0  0  0  0  0  0  0  0  0
   -7.7344    2.3414   -9.4664 H   0  0  0  0  0  0  0  0  0  0  0  0
   -9.3153    2.3664  -10.2953 H   0  0  0  0  0  0  0  0  0  0  0  0
   -8.6181    3.7350  -14.2247 H   0  0  0  0  0  0  0  0  0  0  0  0
  -10.2423    4.3654  -14.4985 H   0  0  0  0  0  0  0  0  0  0  0  0
   -8.8299    7.2703  -12.8388 H   0  0  0  0  0  0  0  0  0  0  0  0
   -7.3550    7.3038  -13.8098 H   0  0  0  0  0  0  0  0  0  0  0  0
  -10.5139    1.9814   -8.2500 H   0  0  0  0  0  0  0  0  0  0  0  0
   -9.1555    0.8619   -8.1571 H   0  0  0  0  0  0  0  0  0  0  0  0
   -7.7524    3.7439  -11.6109 H   0  0  0  0  0  0  0  0  0  0  0  0
   -6.4070    6.6690  -16.9123 H   0  0  0  0  0  0  0  0  0  0  0  0
   -5.9594    4.9482  -16.9227 H   0  0  0  0  0  0  0  0  0  0  0  0
   -5.8959    5.9151  -18.4123 H   0  0  0  0  0  0  0  0  0  0  0  0
   -9.0208    3.8150  -18.8298 H   0  0  0  0  0  0  0  0  0  0  0  0
   -7.5666    3.2421  -18.0321 H   0  0  0  0  0  0  0  0  0  0  0  0
   -7.4319    4.1600  -19.5484 H   0  0  0  0  0  0  0  0  0  0  0  0
   -9.6510    6.2501  -18.7714 H   0  0  0  0  0  0  0  0  0  0  0  0
   -8.6025    7.4399  -17.9698 H   0  0  0  0  0  0  0  0  0  0  0  0
   -8.1246    6.6973  -19.5134 H   0  0  0  0  0  0  0  0  0  0  0  0
   -7.9784    2.5287   -6.8423 H   0  0  0  0  0  0  0  0  0  0  0  0
  1  4  1  0  0  0  0
  1 16  2  0  0  0  0
  1 18  1  0  0  0  0
  2 11  1  0  0  0  0
  2 17  2  0  0  0  0
  2 18  1  0  0  0  0
  3 20  1  0  0  0  0
  3 21  2  0  0  0  0
  3 22  1  0  0  0  0
  4 19  1  0  0  0  0
  5  8  1  0  0  0  0
  5 11  1  0  0  0  0
  6  9  1  0  0  0  0
  6 11  1  0  0  0  0
  7 10  1  0  0  0  0
  7 18  1  0  0  0  0
  8 20  1  0  0  0  0
  9 20  1  0  0  0  0
 10 19  1  0  0  0  0
 12 15  1  0  0  0  0
 13 15  1  0  0  0  0
 14 15  1  0  0  0  0
 15 22  1  0  0  0  0
 16 17  1  0  0  0  0
  4 23  1  0  0  0  0
  4 24  1  0  0  0  0
  5 25  1  0  0  0  0
  5 26  1  0  0  0  0
  6 27  1  0  0  0  0
  6 28  1  0  0  0  0
  7 29  1  0  0  0  0
  7 30  1  0  0  0  0
  8 31  1  0  0  0  0
  8 32  1  0  0  0  0
  9 33  1  0  0  0  0
  9 34  1  0  0  0  0
 10 35  1  0  0  0  0
 10 36  1  0  0  0  0
 11 37  1  0  0  0  0
 12 38  1  0  0  0  0
 12 39  1  0  0  0  0
 12 40  1  0  0  0  0
 13 41  1  0  0  0  0
 13 42  1  0  0  0  0
 13 43  1  0  0  0  0
 14 44  1  0  0  0  0
 14 45  1  0  0  0  0
 14 46  1  0  0  0  0
 19 47  1  0  0  0  0
M  END
> <id>
EN300-26673324

> <smiles>
Cl.Cl.CC(C)(C)OC(=O)N1CCC(CC1)C2=NN=C3CNCCN23

> <IUPAC Name>
tert-butyl 4-{5H,6H,7H,8H-[1,2,4]triazolo[4,3-a]pyrazin-3-yl}piperidine-1-carboxylate dihydrochloride

> <URL>
https://www.enaminestore.com/catalog/EN300-26673324

> <ROCS_ShapeQuery>
_x0404_0B

> <ROCS_TanimotoCombo>
0.439 

> <ROCS_ShapeTanimoto>
0.354 

> <ROCS_ColorTanimoto>
0.085 

> <ROCS_RefTversky>
0.312 

> <ROCS_RefColorTversky>
0.092 

> <ROCS_RefTverskyCombo>
0.404 

> <ROCS_FitTversky>
1.613 

> <ROCS_FitColorTversky>
0.526 

> <ROCS_FitTverskyCombo>
2.139 

> <ROCS_ColorScore>
-6.644

> <ROCS_Overlap>
2082.283

> <ROCS_Rank>
234                 

$$$$
untitled-dbase-140064_608
  -OEChem-08222312023D

 47 49  0     0  0  0  0  0  0999 V2000
   -9.1261    4.7089   -8.0684 C   0  0  0  0  0  0  0  0  0  0  0  0
   -8.6395    5.0224  -10.1731 C   0  0  0  0  0  0  0  0  0  0  0  0
   -8.6392    6.2143  -15.6971 C   0  0  0  0  0  0  0  0  0  0  0  0
   -9.4469    3.9533   -6.8312 C   0  0  0  0  0  0  0  0  0  0  0  0
   -9.5929    4.5089  -12.4461 C   0  0  0  0  0  0  0  0  0  0  0  0
   -7.3746    5.7816  -12.2625 C   0  0  0  0  0  0  0  0  0  0  0  0
   -8.7868    2.6271   -9.3712 C   0  0  0  0  0  0  0  0  0  0  0  0
   -9.3092    4.5484  -13.9433 C   0  0  0  0  0  0  0  0  0  0  0  0
   -8.0743    6.6346  -13.3174 C   0  0  0  0  0  0  0  0  0  0  0  0
   -9.4231    1.9260   -8.1655 C   0  0  0  0  0  0  0  0  0  0  0  0
   -8.3077    4.7267  -11.6258 C   0  0  0  0  0  0  0  0  0  0  0  0
   -6.4609    5.7392  -17.4897 C   0  0  0  0  0  0  0  0  0  0  0  0
   -7.9812    4.0796  -18.6048 C   0  0  0  0  0  0  0  0  0  0  0  0
   -8.6099    6.5106  -18.5486 C   0  0  0  0  0  0  0  0  0  0  0  0
   -7.9122    5.3757  -17.8002 C   0  0  0  0  0  0  0  0  0  0  0  0
   -9.0788    6.0077   -8.2751 N   0  0  0  0  0  0  0  0  0  0  0  0
   -8.7682    6.2053   -9.6110 N   0  0  0  0  0  0  0  0  0  0  0  0
   -8.8596    4.0648   -9.2427 N   0  0  0  0  0  0  0  0  0  0  0  0
   -8.9955    2.5548   -6.9083 N   0  0  0  0  0  0  0  0  0  0  0  0
   -8.6811    5.8063  -14.3602 N   0  0  0  0  0  0  0  0  0  0  0  0
   -8.6322    7.3872  -16.0655 O   0  0  0  0  0  0  0  0  0  0  0  0
   -8.6007    5.1535  -16.5643 O   0  0  0  0  0  0  0  0  0  0  0  0
   -8.9776    4.4483   -5.9729 H   0  0  0  0  0  0  0  0  0  0  0  0
  -10.5292    3.9640   -6.6656 H   0  0  0  0  0  0  0  0  0  0  0  0
  -10.3397    5.2768  -12.1952 H   0  0  0  0  0  0  0  0  0  0  0  0
  -10.0444    3.5419  -12.1849 H   0  0  0  0  0  0  0  0  0  0  0  0
   -6.5021    5.2800  -12.7189 H   0  0  0  0  0  0  0  0  0  0  0  0
   -6.9585    6.4410  -11.4777 H   0  0  0  0  0  0  0  0  0  0  0  0
   -7.7344    2.3414   -9.4664 H   0  0  0  0  0  0  0  0  0  0  0  0
   -9.3153    2.3664  -10.2953 H   0  0  0  0  0  0  0  0  0  0  0  0
   -8.6181    3.7350  -14.2247 H   0  0  0  0  0  0  0  0  0  0  0  0
  -10.2423    4.3654  -14.4985 H   0  0  0  0  0  0  0  0  0  0  0  0
   -8.8299    7.2703  -12.8388 H   0  0  0  0  0  0  0  0  0  0  0  0
   -7.3550    7.3038  -13.8098 H   0  0  0  0  0  0  0  0  0  0  0  0
  -10.5139    1.9814   -8.2500 H   0  0  0  0  0  0  0  0  0  0  0  0
   -9.1555    0.8619   -8.1571 H   0  0  0  0  0  0  0  0  0  0  0  0
   -7.7524    3.7439  -11.6109 H   0  0  0  0  0  0  0  0  0  0  0  0
   -6.4070    6.6690  -16.9123 H   0  0  0  0  0  0  0  0  0  0  0  0
   -5.9594    4.9482  -16.9227 H   0  0  0  0  0  0  0  0  0  0  0  0
   -5.8959    5.9151  -18.4123 H   0  0  0  0  0  0  0  0  0  0  0  0
   -9.0208    3.8150  -18.8298 H   0  0  0  0  0  0  0  0  0  0  0  0
   -7.5666    3.2421  -18.0321 H   0  0  0  0  0  0  0  0  0  0  0  0
   -7.4319    4.1600  -19.5484 H   0  0  0  0  0  0  0  0  0  0  0  0
   -9.6510    6.2501  -18.7714 H   0  0  0  0  0  0  0  0  0  0  0  0
   -8.6025    7.4399  -17.9698 H   0  0  0  0  0  0  0  0  0  0  0  0
   -8.1246    6.6973  -19.5134 H   0  0  0  0  0  0  0  0  0  0  0  0
   -7.9784    2.5287   -6.8423 H   0  0  0  0  0  0  0  0  0  0  0  0
  1  4  1  0  0  0  0
  1 16  2  0  0  0  0
  1 18  1  0  0  0  0
  2 11  1  0  0  0  0
  2 17  2  0  0  0  0
  2 18  1  0  0  0  0
  3 20  1  0  0  0  0
  3 21  2  0  0  0  0
  3 22  1  0  0  0  0
  4 19  1  0  0  0  0
  5  8  1  0  0  0  0
  5 11  1  0  0  0  0
  6  9  1  0  0  0  0
  6 11  1  0  0  0  0
  7 10  1  0  0  0  0
  7 18  1  0  0  0  0
  8 20  1  0  0  0  0
  9 20  1  0  0  0  0
 10 19  1  0  0  0  0
 12 15  1  0  0  0  0
 13 15  1  0  0  0  0
 14 15  1  0  0  0  0
 15 22  1  0  0  0  0
 16 17  1  0  0  0  0
  4 23  1  0  0  0  0
  4 24  1  0  0  0  0
  5 25  1  0  0  0  0
  5 26  1  0  0  0  0
  6 27  1  0  0  0  0
  6 28  1  0  0  0  0
  7 29  1  0  0  0  0
  7 30  1  0  0  0  0
  8 31  1  0  0  0  0
  8 32  1  0  0  0  0
  9 33  1  0  0  0  0
  9 34  1  0  0  0  0
 10 35  1  0  0  0  0
 10 36  1  0  0  0  0
 11 37  1  0  0  0  0
 12 38  1  0  0  0  0
 12 39  1  0  0  0  0
 12 40  1  0  0  0  0
 13 41  1  0  0  0  0
 13 42  1  0  0  0  0
 13 43  1  0  0  0  0
 14 44  1  0  0  0  0
 14 45  1  0  0  0  0
 14 46  1  0  0  0  0
 19 47  1  0  0  0  0
M  END
> <id>
EN300-26673325

> <smiles>
CC(C)(C)OC(=O)N1CCC(CC1)C2=NN=C3CNCCN23

> <IUPAC Name>
tert-butyl 4-{5H,6H,7H,8H-[1,2,4]triazolo[4,3-a]pyrazin-3-yl}piperidine-1-carboxylate

> <CAS>
1794557-73-5

> <Purity>
95

> <URL>
https://www.enaminestore.com/catalog/EN300-26673325

> <ROCS_ShapeQuery>
_x0404_0B

> <ROCS_TanimotoCombo>
0.439 

> <ROCS_ShapeTanimoto>
0.354 

> <ROCS_ColorTanimoto>
0.085 

> <ROCS_RefTversky>
0.312 

> <ROCS_RefColorTversky>
0.092 

> <ROCS_RefTverskyCombo>
0.404 

> <ROCS_FitTversky>
1.613 

> <ROCS_FitColorTversky>
0.526 

> <ROCS_FitTverskyCombo>
2.139 

> <ROCS_ColorScore>
-6.644

> <ROCS_Overlap>
2082.283

> <ROCS_Rank>
235                 

$$$$
untitled-dbase-164594_444
  -OEChem-08222312023D

 52 54  0     1  0  0  0  0  0999 V2000
   -7.4856    4.8186  -16.1490 C   0  0  0  0  0  0  0  0  0  0  0  0
   -9.8730    6.0206  -16.9211 C   0  0  0  0  0  0  0  0  0  0  0  0
   -7.7084    5.1203  -17.4911 C   0  0  0  0  0  0  0  0  0  0  0  0
   -9.6609    5.7261  -15.5638 C   0  0  0  0  0  0  0  0  0  0  0  0
   -8.4522    5.1268  -15.1860 C   0  0  0  0  0  0  0  0  0  0  0  0
   -8.9019    5.7226  -17.8774 C   0  0  0  0  0  0  0  0  0  0  0  0
   -6.6991    4.7899  -18.4851 C   0  0  0  0  0  0  0  0  0  0  0  0
   -8.9574    5.0782   -9.1681 C   0  0  0  0  0  0  0  0  0  0  0  0
   -8.3627    6.6988  -12.4317 C   0  0  0  0  0  0  0  0  0  0  0  0
  -10.4373    5.3278  -13.2316 C   0  0  0  0  0  0  0  0  0  0  0  0
   -8.7724    6.8329  -10.9743 C   0  0  0  0  0  0  0  0  0  0  0  0
   -8.7190    4.5076  -11.5854 C   0  0  0  0  0  0  0  0  0  0  0  0
  -10.7348    6.0438  -14.5534 C   0  0  1  0  0  0  0  0  0  0  0  0
   -8.9423    5.3370  -12.8647 C   0  0  2  0  0  0  0  0  0  0  0  0
  -11.1823    3.6472   -8.0854 C   0  0  0  0  0  0  0  0  0  0  0  0
   -9.6200    1.6848   -7.9535 C   0  0  0  0  0  0  0  0  0  0  0  0
   -9.1325    3.7627   -6.6296 C   0  0  0  0  0  0  0  0  0  0  0  0
   -4.4381    5.1780  -19.1406 C   0  0  0  0  0  0  0  0  0  0  0  0
   -9.7279    3.2078   -7.9228 C   0  0  0  0  0  0  0  0  0  0  0  0
   -8.8241    5.4609  -10.4916 N   0  0  0  0  0  0  0  0  0  0  0  0
  -10.8777    7.4866  -14.3508 N   0  0  0  0  0  0  0  0  0  0  0  0
   -6.8846    4.0321  -19.4465 O   0  0  0  0  0  0  0  0  0  0  0  0
   -9.0496    5.8641   -8.2279 O   0  0  0  0  0  0  0  0  0  0  0  0
   -8.1379    4.7687  -13.9024 O   0  0  0  0  0  0  0  0  0  0  0  0
   -5.5137    5.4230  -18.2280 O   0  0  0  0  0  0  0  0  0  0  0  0
   -8.9720    3.7163   -9.0277 O   0  0  0  0  0  0  0  0  0  0  0  0
   -9.1290    6.0205  -19.1639 F   0  0  0  0  0  0  0  0  0  0  0  0
   -6.5610    4.3290  -15.8480 H   0  0  0  0  0  0  0  0  0  0  0  0
  -10.7979    6.4891  -17.2466 H   0  0  0  0  0  0  0  0  0  0  0  0
   -8.8091    7.5168  -13.0150 H   0  0  0  0  0  0  0  0  0  0  0  0
   -7.2716    6.7467  -12.5410 H   0  0  0  0  0  0  0  0  0  0  0  0
  -10.9938    5.8207  -12.4086 H   0  0  0  0  0  0  0  0  0  0  0  0
  -10.8187    4.2891  -13.2714 H   0  0  0  0  0  0  0  0  0  0  0  0
   -8.0170    7.3634  -10.3868 H   0  0  0  0  0  0  0  0  0  0  0  0
   -9.7373    7.3276  -10.8407 H   0  0  0  0  0  0  0  0  0  0  0  0
   -9.5071    3.7581  -11.4379 H   0  0  0  0  0  0  0  0  0  0  0  0
   -7.7420    4.0121  -11.5445 H   0  0  0  0  0  0  0  0  0  0  0  0
  -11.6822    5.6677  -14.9700 H   0  0  0  0  0  0  0  0  0  0  0  0
  -11.2640    4.7398   -8.0639 H   0  0  0  0  0  0  0  0  0  0  0  0
  -11.6104    3.2849   -9.0258 H   0  0  0  0  0  0  0  0  0  0  0  0
  -11.7981    3.2748   -7.2587 H   0  0  0  0  0  0  0  0  0  0  0  0
   -8.5781    1.3651   -7.8372 H   0  0  0  0  0  0  0  0  0  0  0  0
   -9.9585    1.2889   -8.9179 H   0  0  0  0  0  0  0  0  0  0  0  0
  -10.2155    1.2214   -7.1603 H   0  0  0  0  0  0  0  0  0  0  0  0
   -8.0892    3.4476   -6.5127 H   0  0  0  0  0  0  0  0  0  0  0  0
   -9.1678    4.8567   -6.6062 H   0  0  0  0  0  0  0  0  0  0  0  0
   -9.6713    3.3781   -5.7561 H   0  0  0  0  0  0  0  0  0  0  0  0
   -3.5555    5.7391  -18.8238 H   0  0  0  0  0  0  0  0  0  0  0  0
   -4.7358    5.4841  -20.1467 H   0  0  0  0  0  0  0  0  0  0  0  0
   -4.2077    4.1100  -19.1400 H   0  0  0  0  0  0  0  0  0  0  0  0
  -11.0695    7.9010  -15.2301 H   0  0  0  0  0  0  0  0  0  0  0  0
  -11.6268    7.6329  -13.7189 H   0  0  0  0  0  0  0  0  0  0  0  0
  1  3  2  0  0  0  0
  1  5  1  0  0  0  0
  2  4  1  0  0  0  0
  2  6  2  0  0  0  0
  3  6  1  0  0  0  0
  3  7  1  0  0  0  0
  4  5  2  0  0  0  0
  4 13  1  0  0  0  0
  5 24  1  0  0  0  0
  6 27  1  0  0  0  0
  7 22  2  0  0  0  0
  7 25  1  0  0  0  0
  8 20  1  0  0  0  0
  8 23  2  0  0  0  0
  8 26  1  0  0  0  0
  9 11  1  0  0  0  0
  9 14  1  0  0  0  0
 10 13  1  0  0  0  0
 10 14  1  0  0  0  0
 11 20  1  0  0  0  0
 12 14  1  0  0  0  0
 12 20  1  0  0  0  0
 13 21  1  0  0  0  0
 14 24  1  0  0  0  0
 15 19  1  0  0  0  0
 16 19  1  0  0  0  0
 17 19  1  0  0  0  0
 18 25  1  0  0  0  0
 19 26  1  0  0  0  0
  1 28  1  0  0  0  0
  2 29  1  0  0  0  0
  9 30  1  0  0  0  0
  9 31  1  0  0  0  0
 10 32  1  0  0  0  0
 10 33  1  0  0  0  0
 11 34  1  0  0  0  0
 11 35  1  0  0  0  0
 12 36  1  0  0  0  0
 12 37  1  0  0  0  0
 13 38  1  0  0  0  0
 15 39  1  0  0  0  0
 15 40  1  0  0  0  0
 15 41  1  0  0  0  0
 16 42  1  0  0  0  0
 16 43  1  0  0  0  0
 16 44  1  0  0  0  0
 17 45  1  0  0  0  0
 17 46  1  0  0  0  0
 17 47  1  0  0  0  0
 18 48  1  0  0  0  0
 18 49  1  0  0  0  0
 18 50  1  0  0  0  0
 21 51  1  0  0  0  0
 21 52  1  0  0  0  0
M  END
> <id>
EN300-1129082

> <smiles>
COC(=O)C=1C=C2OC3(CCN(C3)C(=O)OC(C)(C)C)CC(N)C2=CC1F

> <IUPAC Name>
1'-tert-butyl 7-methyl 4-amino-6-fluoro-3,4-dihydrospiro[1-benzopyran-2,3'-pyrrolidine]-1',7-dicarboxylate

> <CAS>
2137602-10-7

> <URL>
https://www.enaminestore.com/catalog/EN300-1129082

> <ROCS_ShapeQuery>
_x0404_0B

> <ROCS_TanimotoCombo>
0.439 

> <ROCS_ShapeTanimoto>
0.387 

> <ROCS_ColorTanimoto>
0.051 

> <ROCS_RefTversky>
0.343 

> <ROCS_RefColorTversky>
0.057 

> <ROCS_RefTverskyCombo>
0.400 

> <ROCS_FitTversky>
1.510 

> <ROCS_FitColorTversky>
0.336 

> <ROCS_FitTverskyCombo>
1.845 

> <ROCS_ColorScore>
-4.141

> <ROCS_Overlap>
2290.368

> <ROCS_Rank>
236                 

$$$$
untitled-dbase-87637_2
  -OEChem-08222312023D

 42 44  0     1  0  0  0  0  0999 V2000
   -9.1289    2.2046   -7.9340 C   0  0  0  0  0  0  0  0  0  0  0  0
   -9.4506    3.4910   -7.4523 C   0  0  0  0  0  0  0  0  0  0  0  0
   -8.7161    2.0122   -9.2558 C   0  0  0  0  0  0  0  0  0  0  0  0
   -9.3665    4.6132   -8.2817 C   0  0  0  0  0  0  0  0  0  0  0  0
   -8.6366    3.1321  -10.0564 C   0  0  0  0  0  0  0  0  0  0  0  0
   -8.9544    4.4025   -9.5807 C   0  0  0  0  0  0  0  0  0  0  0  0
   -8.2523    3.2585  -11.4660 C   0  0  0  0  0  0  0  0  0  0  0  0
   -8.7773    5.3560  -10.6806 C   0  0  0  0  0  0  0  0  0  0  0  0
   -8.5714    5.7893  -15.0693 C   0  0  0  0  0  0  0  0  0  0  0  0
   -9.0221    5.1983  -13.7921 C   0  0  0  0  0  0  0  0  0  0  0  0
   -9.2373    3.7547  -18.8258 C   0  0  0  0  0  0  0  0  0  0  0  0
  -10.0127    3.3477  -17.5827 C   0  0  0  0  0  0  0  0  0  0  0  0
   -8.8923    5.2329  -18.7408 C   0  0  0  0  0  0  0  0  0  0  0  0
   -9.2557    3.6474  -16.2814 C   0  0  1  0  0  0  0  0  0  0  0  0
   -8.1008    5.5820  -17.4763 C   0  0  2  0  0  0  0  0  0  0  0  0
   -8.1879    2.5889  -15.9890 C   0  0  0  0  0  0  0  0  0  0  0  0
   -6.6185    5.2183  -17.6042 C   0  0  0  0  0  0  0  0  0  0  0  0
   -8.3264    4.5937  -11.7123 N   0  0  0  0  0  0  0  0  0  0  0  0
   -8.6963    5.0241  -16.2393 N   0  0  0  0  0  0  0  0  0  0  0  0
   -7.9332    2.3338  -12.1870 O   0  0  0  0  0  0  0  0  0  0  0  0
   -8.9889    6.5505  -10.6081 O   0  0  0  0  0  0  0  0  0  0  0  0
   -8.1083    6.9315  -15.0278 O   0  0  0  0  0  0  0  0  0  0  0  0
  -10.1647    4.8413  -13.5990 O   0  0  0  0  0  0  0  0  0  0  0  0
   -7.9595    5.1516  -12.9570 O   0  0  0  0  0  0  0  0  0  0  0  0
   -9.2053    1.3510   -7.2653 H   0  0  0  0  0  0  0  0  0  0  0  0
   -9.7699    3.6086   -6.4199 H   0  0  0  0  0  0  0  0  0  0  0  0
   -8.4717    1.0233   -9.6253 H   0  0  0  0  0  0  0  0  0  0  0  0
   -9.6165    5.6003   -7.9115 H   0  0  0  0  0  0  0  0  0  0  0  0
   -8.3304    3.1502  -18.9324 H   0  0  0  0  0  0  0  0  0  0  0  0
   -9.8483    3.5705  -19.7168 H   0  0  0  0  0  0  0  0  0  0  0  0
  -10.9679    3.8891  -17.5663 H   0  0  0  0  0  0  0  0  0  0  0  0
  -10.2641    2.2819  -17.6385 H   0  0  0  0  0  0  0  0  0  0  0  0
   -8.3330    5.5323  -19.6351 H   0  0  0  0  0  0  0  0  0  0  0  0
   -9.8218    5.8171  -18.7484 H   0  0  0  0  0  0  0  0  0  0  0  0
   -9.9921    3.5645  -15.4740 H   0  0  0  0  0  0  0  0  0  0  0  0
   -8.1300    6.6747  -17.3781 H   0  0  0  0  0  0  0  0  0  0  0  0
   -7.4222    2.6202  -16.7604 H   0  0  0  0  0  0  0  0  0  0  0  0
   -8.6457    1.6027  -15.9762 H   0  0  0  0  0  0  0  0  0  0  0  0
   -7.7327    2.7873  -15.0217 H   0  0  0  0  0  0  0  0  0  0  0  0
   -6.5145    4.1406  -17.7059 H   0  0  0  0  0  0  0  0  0  0  0  0
   -6.0837    5.5492  -16.7172 H   0  0  0  0  0  0  0  0  0  0  0  0
   -6.1977    5.7048  -18.4809 H   0  0  0  0  0  0  0  0  0  0  0  0
  1  2  2  0  0  0  0
  1  3  1  0  0  0  0
  2  4  1  0  0  0  0
  3  5  2  0  0  0  0
  4  6  2  0  0  0  0
  5  6  1  0  0  0  0
  5  7  1  0  0  0  0
  6  8  1  0  0  0  0
  7 18  1  0  0  0  0
  7 20  2  0  0  0  0
  8 18  1  0  0  0  0
  8 21  2  0  0  0  0
  9 10  1  0  0  0  0
  9 19  1  0  0  0  0
  9 22  2  0  0  0  0
 10 23  2  0  0  0  0
 10 24  1  0  0  0  0
 11 12  1  0  0  0  0
 11 13  1  0  0  0  0
 12 14  1  0  0  0  0
 13 15  1  0  0  0  0
 14 16  1  0  0  0  0
 14 19  1  0  0  0  0
 15 17  1  0  0  0  0
 15 19  1  0  0  0  0
 18 24  1  0  0  0  0
  1 25  1  0  0  0  0
  2 26  1  0  0  0  0
  3 27  1  0  0  0  0
  4 28  1  0  0  0  0
 11 29  1  0  0  0  0
 11 30  1  0  0  0  0
 12 31  1  0  0  0  0
 12 32  1  0  0  0  0
 13 33  1  0  0  0  0
 13 34  1  0  0  0  0
 14 35  1  0  0  0  0
 15 36  1  0  0  0  0
 16 37  1  0  0  0  0
 16 38  1  0  0  0  0
 16 39  1  0  0  0  0
 17 40  1  0  0  0  0
 17 41  1  0  0  0  0
 17 42  1  0  0  0  0
M  END
> <id>
EN300-6516585

> <smiles>
CC1CCCC(C)N1C(=O)C(=O)ON2C(=O)C=3C=CC=CC3C2=O

> <IUPAC Name>
1,3-dioxo-2,3-dihydro-1H-isoindol-2-yl 2-(2,6-dimethylpiperidin-1-yl)-2-oxoacetate

> <CAS>
2248387-79-1

> <URL>
https://www.enaminestore.com/catalog/EN300-6516585

> <ROCS_ShapeQuery>
_x0404_0B

> <ROCS_TanimotoCombo>
0.439 

> <ROCS_ShapeTanimoto>
0.372 

> <ROCS_ColorTanimoto>
0.067 

> <ROCS_RefTversky>
0.328 

> <ROCS_RefColorTversky>
0.072 

> <ROCS_RefTverskyCombo>
0.400 

> <ROCS_FitTversky>
1.568 

> <ROCS_FitColorTversky>
0.496 

> <ROCS_FitTverskyCombo>
2.063 

> <ROCS_ColorScore>
-5.180

> <ROCS_Overlap>
2189.333

> <ROCS_Rank>
237                 

$$$$
untitled-dbase-103951_0
  -OEChem-08222312023D

 38 39  0     0  0  0  0  0  0999 V2000
   -8.6929    6.7288  -10.8602 C   0  0  0  0  0  0  0  0  0  0  0  0
   -8.6294    6.2677  -12.1775 C   0  0  0  0  0  0  0  0  0  0  0  0
   -8.8795    4.0109  -11.3894 C   0  0  0  0  0  0  0  0  0  0  0  0
   -9.1602    4.0844   -7.6885 C   0  0  0  0  0  0  0  0  0  0  0  0
   -8.9433    4.4749  -10.0645 C   0  0  0  0  0  0  0  0  0  0  0  0
   -8.8493    5.8550   -9.7878 C   0  0  0  0  0  0  0  0  0  0  0  0
   -8.7228    4.9071  -12.4428 C   0  0  0  0  0  0  0  0  0  0  0  0
   -9.1006    3.5948   -8.9853 C   0  0  0  0  0  0  0  0  0  0  0  0
   -9.0593    5.4501   -7.5168 C   0  0  0  0  0  0  0  0  0  0  0  0
   -8.5074    5.1759  -14.9312 C   0  0  0  0  0  0  0  0  0  0  0  0
   -9.1183    6.0215   -6.1395 C   0  0  0  0  0  0  0  0  0  0  0  0
   -7.0185    5.6826  -17.3199 C   0  0  0  0  0  0  0  0  0  0  0  0
   -8.3515    3.8077  -18.3283 C   0  0  0  0  0  0  0  0  0  0  0  0
   -9.5199    5.8784  -17.5189 C   0  0  0  0  0  0  0  0  0  0  0  0
   -8.3463    4.9271  -17.2895 C   0  0  0  0  0  0  0  0  0  0  0  0
   -8.9068    6.3330   -8.5303 N   0  0  0  0  0  0  0  0  0  0  0  0
   -8.6599    4.4428  -13.7566 N   0  0  0  0  0  0  0  0  0  0  0  0
   -8.3982    6.3915  -15.0354 O   0  0  0  0  0  0  0  0  0  0  0  0
   -9.1990    2.2465   -9.1713 O   0  0  0  0  0  0  0  0  0  0  0  0
   -8.4962    4.3205  -16.0007 O   0  0  0  0  0  0  0  0  0  0  0  0
   -8.6172    7.7994  -10.6788 H   0  0  0  0  0  0  0  0  0  0  0  0
   -8.5067    6.9839  -12.9861 H   0  0  0  0  0  0  0  0  0  0  0  0
   -8.9516    2.9469  -11.6075 H   0  0  0  0  0  0  0  0  0  0  0  0
   -9.2818    3.4152   -6.8432 H   0  0  0  0  0  0  0  0  0  0  0  0
   -8.1118    6.0819   -5.7086 H   0  0  0  0  0  0  0  0  0  0  0  0
   -9.5563    7.0277   -6.1449 H   0  0  0  0  0  0  0  0  0  0  0  0
   -9.7436    5.4058   -5.4802 H   0  0  0  0  0  0  0  0  0  0  0  0
   -7.0108    6.4870  -16.5756 H   0  0  0  0  0  0  0  0  0  0  0  0
   -6.1715    5.0177  -17.1220 H   0  0  0  0  0  0  0  0  0  0  0  0
   -6.8630    6.1610  -18.2936 H   0  0  0  0  0  0  0  0  0  0  0  0
   -9.3024    3.2629  -18.3100 H   0  0  0  0  0  0  0  0  0  0  0  0
   -7.5695    3.0709  -18.1120 H   0  0  0  0  0  0  0  0  0  0  0  0
   -8.1930    4.1947  -19.3401 H   0  0  0  0  0  0  0  0  0  0  0  0
  -10.4724    5.3367  -17.4972 H   0  0  0  0  0  0  0  0  0  0  0  0
   -9.5536    6.6674  -16.7606 H   0  0  0  0  0  0  0  0  0  0  0  0
   -9.4536    6.3478  -18.5071 H   0  0  0  0  0  0  0  0  0  0  0  0
   -8.7359    3.4269  -13.8733 H   0  0  0  0  0  0  0  0  0  0  0  0
   -9.3026    1.7995   -8.3175 H   0  0  0  0  0  0  0  0  0  0  0  0
  1  2  2  0  0  0  0
  1  6  1  0  0  0  0
  2  7  1  0  0  0  0
  3  5  1  0  0  0  0
  3  7  2  0  0  0  0
  4  8  1  0  0  0  0
  4  9  2  0  0  0  0
  5  6  1  0  0  0  0
  5  8  2  0  0  0  0
  6 16  2  0  0  0  0
  7 17  1  0  0  0  0
  8 19  1  0  0  0  0
  9 11  1  0  0  0  0
  9 16  1  0  0  0  0
 10 17  1  0  0  0  0
 10 18  2  0  0  0  0
 10 20  1  0  0  0  0
 12 15  1  0  0  0  0
 13 15  1  0  0  0  0
 14 15  1  0  0  0  0
 15 20  1  0  0  0  0
  1 21  1  0  0  0  0
  2 22  1  0  0  0  0
  3 23  1  0  0  0  0
  4 24  1  0  0  0  0
 11 25  1  0  0  0  0
 11 26  1  0  0  0  0
 11 27  1  0  0  0  0
 12 28  1  0  0  0  0
 12 29  1  0  0  0  0
 12 30  1  0  0  0  0
 13 31  1  0  0  0  0
 13 32  1  0  0  0  0
 13 33  1  0  0  0  0
 14 34  1  0  0  0  0
 14 35  1  0  0  0  0
 14 36  1  0  0  0  0
 17 37  1  0  0  0  0
 19 38  1  0  0  0  0
M  END
> <id>
EN300-26664803

> <smiles>
CC=1C=C(O)C=2C=C(NC(=O)OC(C)(C)C)C=CC2N1

> <IUPAC Name>
tert-butyl N-(4-hydroxy-2-methylquinolin-6-yl)carbamate

> <CAS>
2413878-43-8

> <URL>
https://www.enaminestore.com/catalog/EN300-26664803

> <ROCS_ShapeQuery>
_x0404_0B

> <ROCS_TanimotoCombo>
0.439 

> <ROCS_ShapeTanimoto>
0.342 

> <ROCS_ColorTanimoto>
0.096 

> <ROCS_RefTversky>
0.301 

> <ROCS_RefColorTversky>
0.102 

> <ROCS_RefTverskyCombo>
0.403 

> <ROCS_FitTversky>
1.660 

> <ROCS_FitColorTversky>
0.645 

> <ROCS_FitTverskyCombo>
2.305 

> <ROCS_ColorScore>
-7.347

> <ROCS_Overlap>
2009.239

> <ROCS_Rank>
238                 

$$$$
untitled-dbase-91582_816
  -OEChem-08222312023D

 43 45  0     0  0  0  0  0  0999 V2000
   -9.9875    4.7567  -16.5821 C   0  0  0  0  0  0  0  0  0  0  0  0
  -10.0724    4.2138  -17.8541 C   0  0  0  0  0  0  0  0  0  0  0  0
   -7.8257    4.5138  -18.2292 C   0  0  0  0  0  0  0  0  0  0  0  0
   -8.7423    5.1910  -16.1417 C   0  0  0  0  0  0  0  0  0  0  0  0
   -7.6356    5.0709  -16.9748 C   0  0  0  0  0  0  0  0  0  0  0  0
   -8.7145    5.2502   -9.2269 C   0  0  0  0  0  0  0  0  0  0  0  0
   -7.6550    5.0786  -13.6712 C   0  0  0  0  0  0  0  0  0  0  0  0
   -9.7824    5.4565  -13.6571 C   0  0  0  0  0  0  0  0  0  0  0  0
   -8.5169    6.3284  -11.5712 C   0  0  0  0  0  0  0  0  0  0  0  0
   -8.8954    4.1954  -11.5654 C   0  0  0  0  0  0  0  0  0  0  0  0
   -8.6271    5.8208  -14.6730 C   0  0  0  0  0  0  0  0  0  0  0  0
   -8.7137    5.2560  -12.6122 C   0  0  0  0  0  0  0  0  0  0  0  0
  -10.4693    3.0479   -8.7563 C   0  0  0  0  0  0  0  0  0  0  0  0
   -8.5505    2.0266   -7.4977 C   0  0  0  0  0  0  0  0  0  0  0  0
   -9.5557    4.1881   -6.7069 C   0  0  0  0  0  0  0  0  0  0  0  0
   -9.2181    3.3314   -7.9263 C   0  0  0  0  0  0  0  0  0  0  0  0
   -9.0198    4.0807  -18.6920 N   0  0  0  0  0  0  0  0  0  0  0  0
   -8.7085    5.2648  -10.5941 N   0  0  0  0  0  0  0  0  0  0  0  0
   -9.0632    6.1973   -8.5277 O   0  0  0  0  0  0  0  0  0  0  0  0
   -8.3663    7.2484  -14.7489 O   0  0  0  0  0  0  0  0  0  0  0  0
   -8.2831    4.0469   -8.7414 O   0  0  0  0  0  0  0  0  0  0  0  0
   -5.9107    5.6354  -16.4533 Br  0  0  0  0  0  0  0  0  0  0  0  0
  -10.8699    4.8381  -15.9569 H   0  0  0  0  0  0  0  0  0  0  0  0
  -11.0208    3.8602  -18.2448 H   0  0  0  0  0  0  0  0  0  0  0  0
   -7.0042    4.3915  -18.9288 H   0  0  0  0  0  0  0  0  0  0  0  0
   -7.4480    4.0353  -13.9385 H   0  0  0  0  0  0  0  0  0  0  0  0
   -6.7002    5.5815  -13.4890 H   0  0  0  0  0  0  0  0  0  0  0  0
  -10.5037    6.2568  -13.4642 H   0  0  0  0  0  0  0  0  0  0  0  0
  -10.3389    4.5484  -13.9192 H   0  0  0  0  0  0  0  0  0  0  0  0
   -7.5225    6.7789  -11.5142 H   0  0  0  0  0  0  0  0  0  0  0  0
   -9.2886    7.1005  -11.5118 H   0  0  0  0  0  0  0  0  0  0  0  0
   -9.8858    3.7368  -11.5045 H   0  0  0  0  0  0  0  0  0  0  0  0
   -8.1161    3.4311  -11.5073 H   0  0  0  0  0  0  0  0  0  0  0  0
  -10.9514    3.9821   -9.0660 H   0  0  0  0  0  0  0  0  0  0  0  0
  -10.2352    2.4638   -9.6523 H   0  0  0  0  0  0  0  0  0  0  0  0
  -11.2121    2.4969   -8.1682 H   0  0  0  0  0  0  0  0  0  0  0  0
   -7.6522    2.2252   -6.9019 H   0  0  0  0  0  0  0  0  0  0  0  0
   -8.2209    1.4516   -8.3707 H   0  0  0  0  0  0  0  0  0  0  0  0
   -9.2275    1.4016   -6.9064 H   0  0  0  0  0  0  0  0  0  0  0  0
   -8.6584    4.3916   -6.1114 H   0  0  0  0  0  0  0  0  0  0  0  0
  -10.0021    5.1447   -6.9972 H   0  0  0  0  0  0  0  0  0  0  0  0
  -10.2544    3.6646   -6.0443 H   0  0  0  0  0  0  0  0  0  0  0  0
   -8.3125    7.5424  -13.8337 H   0  0  0  0  0  0  0  0  0  0  0  0
  1  2  1  0  0  0  0
  1  4  2  0  0  0  0
  2 17  2  0  0  0  0
  3  5  2  0  0  0  0
  3 17  1  0  0  0  0
  4  5  1  0  0  0  0
  4 11  1  0  0  0  0
  5 22  1  0  0  0  0
  6 18  1  0  0  0  0
  6 19  2  0  0  0  0
  6 21  1  0  0  0  0
  7 11  1  0  0  0  0
  7 12  1  0  0  0  0
  8 11  1  0  0  0  0
  8 12  1  0  0  0  0
  9 12  1  0  0  0  0
  9 18  1  0  0  0  0
 10 12  1  0  0  0  0
 10 18  1  0  0  0  0
 11 20  1  0  0  0  0
 13 16  1  0  0  0  0
 14 16  1  0  0  0  0
 15 16  1  0  0  0  0
 16 21  1  0  0  0  0
  1 23  1  0  0  0  0
  2 24  1  0  0  0  0
  3 25  1  0  0  0  0
  7 26  1  0  0  0  0
  7 27  1  0  0  0  0
  8 28  1  0  0  0  0
  8 29  1  0  0  0  0
  9 30  1  0  0  0  0
  9 31  1  0  0  0  0
 10 32  1  0  0  0  0
 10 33  1  0  0  0  0
 13 34  1  0  0  0  0
 13 35  1  0  0  0  0
 13 36  1  0  0  0  0
 14 37  1  0  0  0  0
 14 38  1  0  0  0  0
 14 39  1  0  0  0  0
 15 40  1  0  0  0  0
 15 41  1  0  0  0  0
 15 42  1  0  0  0  0
 20 43  1  0  0  0  0
M  END
> <id>
EN300-7428222

> <smiles>
CC(C)(C)OC(=O)N1CC2(C1)CC(O)(C2)C=3C=CN=CC3Br

> <IUPAC Name>
tert-butyl 6-(3-bromopyridin-4-yl)-6-hydroxy-2-azaspiro[3.3]heptane-2-carboxylate

> <CAS>
2309449-02-1

> <URL>
https://www.enaminestore.com/catalog/EN300-7428222

> <ROCS_ShapeQuery>
_x0404_0B

> <ROCS_TanimotoCombo>
0.438 

> <ROCS_ShapeTanimoto>
0.375 

> <ROCS_ColorTanimoto>
0.063 

> <ROCS_RefTversky>
0.325 

> <ROCS_RefColorTversky>
0.070 

> <ROCS_RefTverskyCombo>
0.395 

> <ROCS_FitTversky>
1.700 

> <ROCS_FitColorTversky>
0.406 

> <ROCS_FitTverskyCombo>
2.106 

> <ROCS_ColorScore>
-5.022

> <ROCS_Overlap>
2170.002

> <ROCS_Rank>
239                 

$$$$
untitled-dbase-12166_1896
  -OEChem-08222312023D

 49 50  0     1  0  0  0  0  0999 V2000
   -9.2209    4.3824  -15.8650 C   0  0  0  0  0  0  0  0  0  0  0  0
   -9.6466    4.5452  -17.1832 C   0  0  0  0  0  0  0  0  0  0  0  0
   -7.0693    5.3160  -16.4443 C   0  0  0  0  0  0  0  0  0  0  0  0
   -7.9323    4.7679  -15.4955 C   0  0  0  0  0  0  0  0  0  0  0  0
   -8.7836    5.0933  -18.1321 C   0  0  0  0  0  0  0  0  0  0  0  0
   -7.4949    5.4788  -17.7627 C   0  0  0  0  0  0  0  0  0  0  0  0
   -8.8596    4.5739   -9.9314 C   0  0  0  0  0  0  0  0  0  0  0  0
   -7.7203    5.8489  -13.1983 C   0  0  0  0  0  0  0  0  0  0  0  0
   -8.8231    5.6604  -12.1605 C   0  0  0  0  0  0  0  0  0  0  0  0
   -7.9712    3.3202  -11.9121 C   0  0  0  0  0  0  0  0  0  0  0  0
   -7.4675    4.5896  -14.0559 C   0  0  1  0  0  0  0  0  0  0  0  0
   -8.0868    3.3200  -13.4343 C   0  0  1  0  0  0  0  0  0  0  0  0
   -9.2612    5.2568  -19.5377 C   0  0  0  0  0  0  0  0  0  0  0  0
   -6.5533    6.0676  -18.7615 C   0  0  0  0  0  0  0  0  0  0  0  0
  -10.7016    4.2287   -7.7697 C   0  0  0  0  0  0  0  0  0  0  0  0
   -9.8327    1.8751   -7.6477 C   0  0  0  0  0  0  0  0  0  0  0  0
   -8.2799    3.8048   -7.2309 C   0  0  0  0  0  0  0  0  0  0  0  0
   -9.4984    3.3193   -8.0148 C   0  0  0  0  0  0  0  0  0  0  0  0
   -8.5603    4.5103  -11.2962 N   0  0  0  0  0  0  0  0  0  0  0  0
   -8.8341    5.6046   -9.2619 O   0  0  0  0  0  0  0  0  0  0  0  0
   -7.4303    2.1609  -13.9473 O   0  0  0  0  0  0  0  0  0  0  0  0
   -9.1828    3.3475   -9.4115 O   0  0  0  0  0  0  0  0  0  0  0  0
   -9.9000    3.9540  -15.1324 H   0  0  0  0  0  0  0  0  0  0  0  0
  -10.6523    4.2410  -17.4613 H   0  0  0  0  0  0  0  0  0  0  0  0
   -6.0650    5.6169  -16.1553 H   0  0  0  0  0  0  0  0  0  0  0  0
   -7.9840    6.7024  -13.8502 H   0  0  0  0  0  0  0  0  0  0  0  0
   -6.7866    6.1456  -12.6882 H   0  0  0  0  0  0  0  0  0  0  0  0
   -8.8946    6.5456  -11.5119 H   0  0  0  0  0  0  0  0  0  0  0  0
   -9.7929    5.5532  -12.6644 H   0  0  0  0  0  0  0  0  0  0  0  0
   -8.4121    2.3942  -11.5090 H   0  0  0  0  0  0  0  0  0  0  0  0
   -6.9105    3.2866  -11.6054 H   0  0  0  0  0  0  0  0  0  0  0  0
   -6.3546    4.4222  -14.1317 H   0  0  0  0  0  0  0  0  0  0  0  0
   -9.1573    3.2427  -13.7169 H   0  0  0  0  0  0  0  0  0  0  0  0
   -9.7301    6.2391  -19.6677 H   0  0  0  0  0  0  0  0  0  0  0  0
   -8.4324    5.1678  -20.2509 H   0  0  0  0  0  0  0  0  0  0  0  0
   -9.9928    4.4826  -19.8002 H   0  0  0  0  0  0  0  0  0  0  0  0
   -5.9674    5.2765  -19.2434 H   0  0  0  0  0  0  0  0  0  0  0  0
   -7.0948    6.6235  -19.5368 H   0  0  0  0  0  0  0  0  0  0  0  0
   -5.8621    6.7743  -18.2857 H   0  0  0  0  0  0  0  0  0  0  0  0
  -10.4657    5.2663   -8.0320 H   0  0  0  0  0  0  0  0  0  0  0  0
  -11.5722    3.9119   -8.3532 H   0  0  0  0  0  0  0  0  0  0  0  0
  -10.9787    4.2333   -6.7093 H   0  0  0  0  0  0  0  0  0  0  0  0
   -8.9721    1.2191   -7.8220 H   0  0  0  0  0  0  0  0  0  0  0  0
  -10.6455    1.4912   -8.2747 H   0  0  0  0  0  0  0  0  0  0  0  0
  -10.1314    1.7838   -6.5985 H   0  0  0  0  0  0  0  0  0  0  0  0
   -7.4167    3.1526   -7.4065 H   0  0  0  0  0  0  0  0  0  0  0  0
   -8.0029    4.8270   -7.5083 H   0  0  0  0  0  0  0  0  0  0  0  0
   -8.4740    3.7771   -6.1525 H   0  0  0  0  0  0  0  0  0  0  0  0
   -7.5250    2.1966  -14.9111 H   0  0  0  0  0  0  0  0  0  0  0  0
  1  2  1  0  0  0  0
  1  4  2  0  0  0  0
  2  5  2  0  0  0  0
  3  4  1  0  0  0  0
  3  6  2  0  0  0  0
  4 11  1  0  0  0  0
  5  6  1  0  0  0  0
  5 13  1  0  0  0  0
  6 14  1  0  0  0  0
  7 19  1  0  0  0  0
  7 20  2  0  0  0  0
  7 22  1  0  0  0  0
  8  9  1  0  0  0  0
  8 11  1  0  0  0  0
  9 19  1  0  0  0  0
 10 12  1  0  0  0  0
 10 19  1  0  0  0  0
 11 12  1  0  0  0  0
 12 21  1  0  0  0  0
 15 18  1  0  0  0  0
 16 18  1  0  0  0  0
 17 18  1  0  0  0  0
 18 22  1  0  0  0  0
  1 23  1  0  0  0  0
  2 24  1  0  0  0  0
  3 25  1  0  0  0  0
  8 26  1  0  0  0  0
  8 27  1  0  0  0  0
  9 28  1  0  0  0  0
  9 29  1  0  0  0  0
 10 30  1  0  0  0  0
 10 31  1  0  0  0  0
 11 32  1  0  0  0  0
 12 33  1  0  0  0  0
 13 34  1  0  0  0  0
 13 35  1  0  0  0  0
 13 36  1  0  0  0  0
 14 37  1  0  0  0  0
 14 38  1  0  0  0  0
 14 39  1  0  0  0  0
 15 40  1  0  0  0  0
 15 41  1  0  0  0  0
 15 42  1  0  0  0  0
 16 43  1  0  0  0  0
 16 44  1  0  0  0  0
 16 45  1  0  0  0  0
 17 46  1  0  0  0  0
 17 47  1  0  0  0  0
 17 48  1  0  0  0  0
 21 49  1  0  0  0  0
M  END
> <id>
EN300-200804

> <smiles>
CC=1C=CC(=CC1C)C2CCN(CC2O)C(=O)OC(C)(C)C

> <MDLNUMBER>
MFCD28348069

> <IUPAC Name>
tert-butyl 4-(3,4-dimethylphenyl)-3-hydroxypiperidine-1-carboxylate

> <CAS>
1955560-61-8

> <URL>
https://www.enaminestore.com/catalog/EN300-200804

> <ROCS_ShapeQuery>
_x0404_0B

> <ROCS_TanimotoCombo>
0.438 

> <ROCS_ShapeTanimoto>
0.348 

> <ROCS_ColorTanimoto>
0.090 

> <ROCS_RefTversky>
0.307 

> <ROCS_RefColorTversky>
0.094 

> <ROCS_RefTverskyCombo>
0.401 

> <ROCS_FitTversky>
1.623 

> <ROCS_FitColorTversky>
0.714 

> <ROCS_FitTverskyCombo>
2.337 

> <ROCS_ColorScore>
-6.767

> <ROCS_Overlap>
2048.663

> <ROCS_Rank>
240                 

$$$$
untitled-dbase-103030_506
  -OEChem-08222312023D

 52 54  0     1  0  0  0  0  0999 V2000
   -8.5715    4.6853  -15.9247 B   0  0  0  0  0  0  0  0  0  0  0  0
   -9.2294    2.0036   -8.5047 C   0  0  0  0  0  0  0  0  0  0  0  0
   -8.7135    4.9826  -10.8353 C   0  0  0  0  0  0  0  0  0  0  0  0
   -8.5850    2.7272   -9.6734 C   0  0  0  0  0  0  0  0  0  0  0  0
   -7.5714    3.2258  -13.8968 C   0  0  0  0  0  0  0  0  0  0  0  0
   -7.8954    3.1179  -12.4096 C   0  0  0  0  0  0  0  0  0  0  0  0
   -8.9541    5.0850  -13.2936 C   0  0  0  0  0  0  0  0  0  0  0  0
   -9.0756    4.8450   -8.4197 C   0  0  0  0  0  0  0  0  0  0  0  0
   -8.7068    4.1013  -14.4386 C   0  0  1  0  0  0  0  0  0  0  0  0
   -8.6922    4.0277   -7.1947 C   0  0  1  0  0  0  0  0  0  0  0  0
   -9.1286    5.2397  -18.0740 C   0  0  0  0  0  0  0  0  0  0  0  0
   -7.6601    5.6886  -17.7684 C   0  0  0  0  0  0  0  0  0  0  0  0
   -9.1661    4.7002   -5.9119 C   0  0  0  0  0  0  0  0  0  0  0  0
  -10.0198    6.3328  -18.6804 C   0  0  0  0  0  0  0  0  0  0  0  0
   -9.2515    3.9816  -18.9628 C   0  0  0  0  0  0  0  0  0  0  0  0
   -7.4778    7.2070  -17.5462 C   0  0  0  0  0  0  0  0  0  0  0  0
   -6.6230    5.2373  -18.8067 C   0  0  0  0  0  0  0  0  0  0  0  0
   -9.2532    2.6982   -7.3177 N   0  0  0  0  0  0  0  0  0  0  0  0
   -8.7038    4.1886   -9.6755 N   0  0  0  0  0  0  0  0  0  0  0  0
   -8.5897    4.3616  -12.0759 N   0  0  0  0  0  0  0  0  0  0  0  0
   -9.5784    0.8266   -8.5965 O   0  0  0  0  0  0  0  0  0  0  0  0
   -8.8174    6.2158  -10.7599 O   0  0  0  0  0  0  0  0  0  0  0  0
   -9.6686    4.8899  -16.7587 O   0  0  0  0  0  0  0  0  0  0  0  0
   -7.3495    5.0290  -16.4985 O   0  0  0  0  0  0  0  0  0  0  0  0
   -7.5164    2.4846   -9.6648 H   0  0  0  0  0  0  0  0  0  0  0  0
   -9.0536    2.3290  -10.5781 H   0  0  0  0  0  0  0  0  0  0  0  0
   -6.5965    3.7129  -14.0321 H   0  0  0  0  0  0  0  0  0  0  0  0
   -7.5273    2.2413  -14.3761 H   0  0  0  0  0  0  0  0  0  0  0  0
   -8.5839    2.2823  -12.2496 H   0  0  0  0  0  0  0  0  0  0  0  0
   -6.9986    2.9873  -11.7974 H   0  0  0  0  0  0  0  0  0  0  0  0
   -8.3159    5.9751  -13.3614 H   0  0  0  0  0  0  0  0  0  0  0  0
   -9.9968    5.4157  -13.2250 H   0  0  0  0  0  0  0  0  0  0  0  0
  -10.1545    5.0845   -8.4084 H   0  0  0  0  0  0  0  0  0  0  0  0
   -8.5556    5.8213   -8.4064 H   0  0  0  0  0  0  0  0  0  0  0  0
   -9.5937    3.4535  -14.4901 H   0  0  0  0  0  0  0  0  0  0  0  0
   -7.6118    3.9185   -7.1623 H   0  0  0  0  0  0  0  0  0  0  0  0
  -10.2487    4.8151   -5.9332 H   0  0  0  0  0  0  0  0  0  0  0  0
   -8.7054    5.6823   -5.8178 H   0  0  0  0  0  0  0  0  0  0  0  0
   -8.8889    4.0924   -5.0520 H   0  0  0  0  0  0  0  0  0  0  0  0
  -11.0077    5.9246  -18.8533 H   0  0  0  0  0  0  0  0  0  0  0  0
   -9.5854    6.6607  -19.6165 H   0  0  0  0  0  0  0  0  0  0  0  0
  -10.0777    7.1630  -17.9876 H   0  0  0  0  0  0  0  0  0  0  0  0
  -10.3013    3.7502  -19.1179 H   0  0  0  0  0  0  0  0  0  0  0  0
   -8.7640    3.1441  -18.4724 H   0  0  0  0  0  0  0  0  0  0  0  0
   -8.7756    4.1685  -19.9210 H   0  0  0  0  0  0  0  0  0  0  0  0
   -6.4324    7.4192  -17.3422 H   0  0  0  0  0  0  0  0  0  0  0  0
   -8.0837    7.5236  -16.7023 H   0  0  0  0  0  0  0  0  0  0  0  0
   -7.7896    7.7424  -18.4382 H   0  0  0  0  0  0  0  0  0  0  0  0
   -5.6465    5.5956  -18.5060 H   0  0  0  0  0  0  0  0  0  0  0  0
   -6.8889    5.6514  -19.7711 H   0  0  0  0  0  0  0  0  0  0  0  0
   -6.6224    4.1556  -18.8549 H   0  0  0  0  0  0  0  0  0  0  0  0
   -9.6694    2.2724   -6.5192 H   0  0  0  0  0  0  0  0  0  0  0  0
  1  9  1  0  0  0  0
  1 23  1  0  0  0  0
  1 24  1  0  0  0  0
  2  4  1  0  0  0  0
  2 18  1  0  0  0  0
  2 21  2  0  0  0  0
  3 19  1  0  0  0  0
  3 20  1  0  0  0  0
  3 22  2  0  0  0  0
  4 19  1  0  0  0  0
  5  6  1  0  0  0  0
  5  9  1  0  0  0  0
  6 20  1  0  0  0  0
  7  9  1  0  0  0  0
  7 20  1  0  0  0  0
  8 10  1  0  0  0  0
  8 19  1  0  0  0  0
 10 13  1  0  0  0  0
 10 18  1  0  0  0  0
 11 12  1  0  0  0  0
 11 14  1  0  0  0  0
 11 15  1  0  0  0  0
 11 23  1  0  0  0  0
 12 16  1  0  0  0  0
 12 17  1  0  0  0  0
 12 24  1  0  0  0  0
  4 25  1  0  0  0  0
  4 26  1  0  0  0  0
  5 27  1  0  0  0  0
  5 28  1  0  0  0  0
  6 29  1  0  0  0  0
  6 30  1  0  0  0  0
  7 31  1  0  0  0  0
  7 32  1  0  0  0  0
  8 33  1  0  0  0  0
  8 34  1  0  0  0  0
  9 35  1  0  0  0  0
 10 36  1  0  0  0  0
 13 37  1  0  0  0  0
 13 38  1  0  0  0  0
 13 39  1  0  0  0  0
 14 40  1  0  0  0  0
 14 41  1  0  0  0  0
 14 42  1  0  0  0  0
 15 43  1  0  0  0  0
 15 44  1  0  0  0  0
 15 45  1  0  0  0  0
 16 46  1  0  0  0  0
 16 47  1  0  0  0  0
 16 48  1  0  0  0  0
 17 49  1  0  0  0  0
 17 50  1  0  0  0  0
 17 51  1  0  0  0  0
 18 52  1  0  0  0  0
M  END
> <id>
EN300-6735978

> <smiles>
CC1CN(CC(=O)N1)C(=O)N2CCC(C2)B3OC(C)(C)C(C)(C)O3

> <IUPAC Name>
6-methyl-4-[3-(tetramethyl-1,3,2-dioxaborolan-2-yl)pyrrolidine-1-carbonyl]piperazin-2-one

> <URL>
https://www.enaminestore.com/catalog/EN300-6735978

> <ROCS_ShapeQuery>
_x0404_0B

> <ROCS_TanimotoCombo>
0.438 

> <ROCS_ShapeTanimoto>
0.373 

> <ROCS_ColorTanimoto>
0.066 

> <ROCS_RefTversky>
0.327 

> <ROCS_RefColorTversky>
0.072 

> <ROCS_RefTverskyCombo>
0.398 

> <ROCS_FitTversky>
1.607 

> <ROCS_FitColorTversky>
0.454 

> <ROCS_FitTverskyCombo>
2.061 

> <ROCS_ColorScore>
-5.167

> <ROCS_Overlap>
2180.984

> <ROCS_Rank>
241                 

$$$$
untitled-dbase-155132_1041
  -OEChem-08222312023D

 41 42  0     1  0  0  0  0  0999 V2000
   -6.1610    5.4200  -18.5486 C   0  0  0  0  0  0  0  0  0  0  0  0
   -8.7493    5.1272   -9.1414 C   0  0  0  0  0  0  0  0  0  0  0  0
   -8.7210    6.4227  -14.4261 C   0  0  0  0  0  0  0  0  0  0  0  0
   -9.5207    4.1393  -17.2351 C   0  0  0  0  0  0  0  0  0  0  0  0
   -8.2361    4.1741  -18.0588 C   0  0  0  0  0  0  0  0  0  0  0  0
   -9.2545    4.4145  -15.7583 C   0  0  0  0  0  0  0  0  0  0  0  0
   -9.2518    6.6769  -10.9986 C   0  0  0  0  0  0  0  0  0  0  0  0
   -7.8011    4.7212  -11.4622 C   0  0  0  0  0  0  0  0  0  0  0  0
   -9.9957    6.4205  -12.3022 C   0  0  0  0  0  0  0  0  0  0  0  0
   -8.5311    4.4976  -12.7881 C   0  0  0  0  0  0  0  0  0  0  0  0
   -7.2306    5.7123  -16.3357 C   0  0  0  0  0  0  0  0  0  0  0  0
   -7.4710    5.4775  -17.8254 C   0  0  1  0  0  0  0  0  0  0  0  0
   -8.7512    3.6594   -8.7955 C   0  0  0  0  0  0  0  0  0  0  0  0
   -8.6292    5.4510  -10.4937 N   0  0  0  0  0  0  0  0  0  0  0  0
   -8.4837    5.6439  -15.5709 N   0  0  0  0  0  0  0  0  0  0  0  0
   -9.1368    5.7436  -13.2716 N   0  0  0  0  0  0  0  0  0  0  0  0
   -5.9492    4.7788  -19.5671 O   0  0  0  0  0  0  0  0  0  0  0  0
   -8.8550    5.9595   -8.2368 O   0  0  0  0  0  0  0  0  0  0  0  0
   -8.5655    7.6503  -14.4362 O   0  0  0  0  0  0  0  0  0  0  0  0
   -5.2318    6.1780  -17.9168 O   0  0  0  0  0  0  0  0  0  0  0  0
   -8.6314    2.9124   -9.9074 F   0  0  0  0  0  0  0  0  0  0  0  0
   -7.7262    3.3644   -7.9764 F   0  0  0  0  0  0  0  0  0  0  0  0
   -9.8962    3.3171   -8.1784 F   0  0  0  0  0  0  0  0  0  0  0  0
  -10.2226    4.8883  -17.6230 H   0  0  0  0  0  0  0  0  0  0  0  0
  -10.0038    3.1620  -17.3470 H   0  0  0  0  0  0  0  0  0  0  0  0
   -7.6083    3.3141  -17.7905 H   0  0  0  0  0  0  0  0  0  0  0  0
   -8.4751    4.0612  -19.1233 H   0  0  0  0  0  0  0  0  0  0  0  0
  -10.2052    4.4847  -15.2182 H   0  0  0  0  0  0  0  0  0  0  0  0
   -8.6813    3.5949  -15.3086 H   0  0  0  0  0  0  0  0  0  0  0  0
   -8.4471    7.4055  -11.1535 H   0  0  0  0  0  0  0  0  0  0  0  0
   -9.9430    7.1102  -10.2727 H   0  0  0  0  0  0  0  0  0  0  0  0
   -7.4815    3.7586  -11.0523 H   0  0  0  0  0  0  0  0  0  0  0  0
   -6.8987    5.3215  -11.6263 H   0  0  0  0  0  0  0  0  0  0  0  0
  -10.8445    5.7527  -12.1160 H   0  0  0  0  0  0  0  0  0  0  0  0
  -10.4223    7.3399  -12.7002 H   0  0  0  0  0  0  0  0  0  0  0  0
   -7.8330    4.1117  -13.5344 H   0  0  0  0  0  0  0  0  0  0  0  0
   -9.3342    3.7652  -12.6684 H   0  0  0  0  0  0  0  0  0  0  0  0
   -6.5783    4.9288  -15.9261 H   0  0  0  0  0  0  0  0  0  0  0  0
   -6.6929    6.6463  -16.1577 H   0  0  0  0  0  0  0  0  0  0  0  0
   -8.0397    6.3153  -18.2460 H   0  0  0  0  0  0  0  0  0  0  0  0
   -4.3647    6.1519  -18.3749 H   0  0  0  0  0  0  0  0  0  0  0  0
  1 12  1  0  0  0  0
  1 17  2  0  0  0  0
  1 20  1  0  0  0  0
  2 13  1  0  0  0  0
  2 14  1  0  0  0  0
  2 18  2  0  0  0  0
  3 15  1  0  0  0  0
  3 16  1  0  0  0  0
  3 19  2  0  0  0  0
  4  5  1  0  0  0  0
  4  6  1  0  0  0  0
  5 12  1  0  0  0  0
  6 15  1  0  0  0  0
  7  9  1  0  0  0  0
  7 14  1  0  0  0  0
  8 10  1  0  0  0  0
  8 14  1  0  0  0  0
  9 16  1  0  0  0  0
 10 16  1  0  0  0  0
 11 12  1  0  0  0  0
 11 15  1  0  0  0  0
 13 21  1  0  0  0  0
 13 22  1  0  0  0  0
 13 23  1  0  0  0  0
  4 24  1  0  0  0  0
  4 25  1  0  0  0  0
  5 26  1  0  0  0  0
  5 27  1  0  0  0  0
  6 28  1  0  0  0  0
  6 29  1  0  0  0  0
  7 30  1  0  0  0  0
  7 31  1  0  0  0  0
  8 32  1  0  0  0  0
  8 33  1  0  0  0  0
  9 34  1  0  0  0  0
  9 35  1  0  0  0  0
 10 36  1  0  0  0  0
 10 37  1  0  0  0  0
 11 38  1  0  0  0  0
 11 39  1  0  0  0  0
 12 40  1  0  0  0  0
 20 41  1  0  0  0  0
M  END
> <id>
EN300-28296583

> <smiles>
OC(=O)C1CCCN(C1)C(=O)N2CCN(CC2)C(=O)C(F)(F)F

> <IUPAC Name>
1-[4-(2,2,2-trifluoroacetyl)piperazine-1-carbonyl]piperidine-3-carboxylic acid

> <CAS>
2680809-98-5

> <URL>
https://www.enaminestore.com/catalog/EN300-28296583

> <ROCS_ShapeQuery>
_x0404_0B

> <ROCS_TanimotoCombo>
0.438 

> <ROCS_ShapeTanimoto>
0.384 

> <ROCS_ColorTanimoto>
0.055 

> <ROCS_RefTversky>
0.332 

> <ROCS_RefColorTversky>
0.059 

> <ROCS_RefTverskyCombo>
0.392 

> <ROCS_FitTversky>
1.674 

> <ROCS_FitColorTversky>
0.409 

> <ROCS_FitTverskyCombo>
2.083 

> <ROCS_ColorScore>
-4.270

> <ROCS_Overlap>
2219.933

> <ROCS_Rank>
242                 

$$$$
untitled-dbase-91611_688
  -OEChem-08222312023D

 53 55  0     0  0  0  0  0  0999 V2000
   -8.8324    4.8993  -18.9677 C   0  0  0  0  0  0  0  0  0  0  0  0
   -9.7949    4.0194  -18.5320 C   0  0  0  0  0  0  0  0  0  0  0  0
   -8.9120    4.8166  -16.7669 C   0  0  0  0  0  0  0  0  0  0  0  0
   -8.9907    5.1176   -8.7547 C   0  0  0  0  0  0  0  0  0  0  0  0
   -9.7946    4.9850  -14.4138 C   0  0  0  0  0  0  0  0  0  0  0  0
   -7.3684    4.3401  -14.7379 C   0  0  0  0  0  0  0  0  0  0  0  0
   -9.4871    4.4844  -12.9952 C   0  0  0  0  0  0  0  0  0  0  0  0
   -6.9878    4.7788  -13.3157 C   0  0  0  0  0  0  0  0  0  0  0  0
   -8.3443    6.5789  -12.0749 C   0  0  0  0  0  0  0  0  0  0  0  0
   -9.0833    6.6117  -10.7435 C   0  0  0  0  0  0  0  0  0  0  0  0
   -7.9574    4.4992  -10.9790 C   0  0  0  0  0  0  0  0  0  0  0  0
   -8.5477    5.1414  -15.3180 C   0  0  0  0  0  0  0  0  0  0  0  0
   -8.1928    5.0700  -12.3941 C   0  0  0  0  0  0  0  0  0  0  0  0
  -10.8258    3.2537   -8.6063 C   0  0  0  0  0  0  0  0  0  0  0  0
   -9.0113    1.5614   -8.2151 C   0  0  0  0  0  0  0  0  0  0  0  0
   -9.6618    3.1451   -6.3775 C   0  0  0  0  0  0  0  0  0  0  0  0
   -7.2110    6.3758  -17.7673 C   0  0  0  0  0  0  0  0  0  0  0  0
   -9.5082    2.9678   -7.8874 C   0  0  0  0  0  0  0  0  0  0  0  0
   -9.8396    3.9727  -17.1611 N   0  0  0  0  0  0  0  0  0  0  0  0
   -8.2757    5.4025  -17.8258 N   0  0  0  0  0  0  0  0  0  0  0  0
   -8.6976    5.3792  -10.0821 N   0  0  0  0  0  0  0  0  0  0  0  0
   -9.5969    5.8909   -8.0166 O   0  0  0  0  0  0  0  0  0  0  0  0
   -8.1511    6.5239  -15.2848 O   0  0  0  0  0  0  0  0  0  0  0  0
   -8.5225    3.8940   -8.3572 O   0  0  0  0  0  0  0  0  0  0  0  0
  -10.9236    2.9947  -19.6346 Br  0  0  0  0  0  0  0  0  0  0  0  0
   -8.5049    5.2020  -19.9531 H   0  0  0  0  0  0  0  0  0  0  0  0
  -10.5116    4.2977  -14.8873 H   0  0  0  0  0  0  0  0  0  0  0  0
  -10.3132    5.9524  -14.3282 H   0  0  0  0  0  0  0  0  0  0  0  0
   -6.4837    4.4571  -15.3766 H   0  0  0  0  0  0  0  0  0  0  0  0
   -7.6098    3.2696  -14.7241 H   0  0  0  0  0  0  0  0  0  0  0  0
  -10.3368    4.7394  -12.3445 H   0  0  0  0  0  0  0  0  0  0  0  0
   -9.4500    3.3858  -13.0169 H   0  0  0  0  0  0  0  0  0  0  0  0
   -6.3465    4.0001  -12.8674 H   0  0  0  0  0  0  0  0  0  0  0  0
   -6.3501    5.6781  -13.3742 H   0  0  0  0  0  0  0  0  0  0  0  0
   -8.8796    7.1283  -12.8556 H   0  0  0  0  0  0  0  0  0  0  0  0
   -7.3582    7.0442  -11.9530 H   0  0  0  0  0  0  0  0  0  0  0  0
   -8.8159    7.4806  -10.1340 H   0  0  0  0  0  0  0  0  0  0  0  0
  -10.1702    6.6000  -10.8803 H   0  0  0  0  0  0  0  0  0  0  0  0
   -8.2819    3.4634  -10.8427 H   0  0  0  0  0  0  0  0  0  0  0  0
   -6.9031    4.5632  -10.6827 H   0  0  0  0  0  0  0  0  0  0  0  0
  -11.1859    4.2622   -8.3736 H   0  0  0  0  0  0  0  0  0  0  0  0
  -10.7204    3.1641   -9.6924 H   0  0  0  0  0  0  0  0  0  0  0  0
  -11.6094    2.5620   -8.2764 H   0  0  0  0  0  0  0  0  0  0  0  0
   -8.0661    1.3520   -7.7014 H   0  0  0  0  0  0  0  0  0  0  0  0
   -8.8091    1.4590   -9.2874 H   0  0  0  0  0  0  0  0  0  0  0  0
   -9.7401    0.7976   -7.9252 H   0  0  0  0  0  0  0  0  0  0  0  0
   -8.7168    2.9401   -5.8615 H   0  0  0  0  0  0  0  0  0  0  0  0
   -9.9824    4.1601   -6.1211 H   0  0  0  0  0  0  0  0  0  0  0  0
  -10.3943    2.4363   -5.9744 H   0  0  0  0  0  0  0  0  0  0  0  0
   -7.6641    7.3706  -17.7497 H   0  0  0  0  0  0  0  0  0  0  0  0
   -6.6158    6.2107  -16.8649 H   0  0  0  0  0  0  0  0  0  0  0  0
   -6.5691    6.2624  -18.6454 H   0  0  0  0  0  0  0  0  0  0  0  0
   -8.9139    7.0378  -15.5922 H   0  0  0  0  0  0  0  0  0  0  0  0
  1  2  2  0  0  0  0
  1 20  1  0  0  0  0
  2 19  1  0  0  0  0
  2 25  1  0  0  0  0
  3 12  1  0  0  0  0
  3 19  2  0  0  0  0
  3 20  1  0  0  0  0
  4 21  1  0  0  0  0
  4 22  2  0  0  0  0
  4 24  1  0  0  0  0
  5  7  1  0  0  0  0
  5 12  1  0  0  0  0
  6  8  1  0  0  0  0
  6 12  1  0  0  0  0
  7 13  1  0  0  0  0
  8 13  1  0  0  0  0
  9 10  1  0  0  0  0
  9 13  1  0  0  0  0
 10 21  1  0  0  0  0
 11 13  1  0  0  0  0
 11 21  1  0  0  0  0
 12 23  1  0  0  0  0
 14 18  1  0  0  0  0
 15 18  1  0  0  0  0
 16 18  1  0  0  0  0
 17 20  1  0  0  0  0
 18 24  1  0  0  0  0
  1 26  1  0  0  0  0
  5 27  1  0  0  0  0
  5 28  1  0  0  0  0
  6 29  1  0  0  0  0
  6 30  1  0  0  0  0
  7 31  1  0  0  0  0
  7 32  1  0  0  0  0
  8 33  1  0  0  0  0
  8 34  1  0  0  0  0
  9 35  1  0  0  0  0
  9 36  1  0  0  0  0
 10 37  1  0  0  0  0
 10 38  1  0  0  0  0
 11 39  1  0  0  0  0
 11 40  1  0  0  0  0
 14 41  1  0  0  0  0
 14 42  1  0  0  0  0
 14 43  1  0  0  0  0
 15 44  1  0  0  0  0
 15 45  1  0  0  0  0
 15 46  1  0  0  0  0
 16 47  1  0  0  0  0
 16 48  1  0  0  0  0
 16 49  1  0  0  0  0
 17 50  1  0  0  0  0
 17 51  1  0  0  0  0
 17 52  1  0  0  0  0
 23 53  1  0  0  0  0
M  END
> <id>
EN300-7428933

> <smiles>
CN1C=C(Br)N=C1C2(O)CCC3(CCN(C3)C(=O)OC(C)(C)C)CC2

> <IUPAC Name>
tert-butyl 8-(4-bromo-1-methyl-1H-imidazol-2-yl)-8-hydroxy-2-azaspiro[4.5]decane-2-carboxylate

> <CAS>
2309467-37-4

> <URL>
https://www.enaminestore.com/catalog/EN300-7428933

> <ROCS_ShapeQuery>
_x0404_0B

> <ROCS_TanimotoCombo>
0.438 

> <ROCS_ShapeTanimoto>
0.378 

> <ROCS_ColorTanimoto>
0.061 

> <ROCS_RefTversky>
0.332 

> <ROCS_RefColorTversky>
0.068 

> <ROCS_RefTverskyCombo>
0.400 

> <ROCS_FitTversky>
1.577 

> <ROCS_FitColorTversky>
0.368 

> <ROCS_FitTverskyCombo>
1.945 

> <ROCS_ColorScore>
-4.889

> <ROCS_Overlap>
2217.430

> <ROCS_Rank>
243                 

$$$$
untitled-dbase-145050_5
  -OEChem-08222312023D

 56 58  0     1  0  0  0  0  0999 V2000
   -8.7250    4.8092  -16.2717 B   0  0  0  0  0  0  0  0  0  0  0  0
   -8.8330    3.4617  -14.0834 C   0  0  0  0  0  0  0  0  0  0  0  0
   -8.8723    3.3532  -12.6898 C   0  0  0  0  0  0  0  0  0  0  0  0
   -8.7332    5.8833  -13.9401 C   0  0  0  0  0  0  0  0  0  0  0  0
   -8.7624    4.7170  -14.7045 C   0  0  0  0  0  0  0  0  0  0  0  0
   -8.7638    5.7664  -12.5593 C   0  0  0  0  0  0  0  0  0  0  0  0
   -8.8314    4.5174  -11.9375 C   0  0  0  0  0  0  0  0  0  0  0  0
   -9.0593    3.6728   -9.6018 C   0  0  0  0  0  0  0  0  0  0  0  0
   -8.8124    6.8773  -11.5580 C   0  0  0  0  0  0  0  0  0  0  0  0
   -8.6224    6.1176  -10.2282 C   0  0  2  0  0  0  0  0  0  0  0  0
   -9.4363    4.7607  -18.4481 C   0  0  0  0  0  0  0  0  0  0  0  0
   -7.9119    5.1116  -18.3913 C   0  0  0  0  0  0  0  0  0  0  0  0
   -7.2154    6.3419   -9.6661 C   0  0  0  0  0  0  0  0  0  0  0  0
  -10.3669    5.9555  -18.7556 C   0  0  0  0  0  0  0  0  0  0  0  0
   -9.7964    3.6227  -19.4134 C   0  0  0  0  0  0  0  0  0  0  0  0
   -7.5099    6.3545  -19.1977 C   0  0  0  0  0  0  0  0  0  0  0  0
   -6.9645    3.9588  -18.7933 C   0  0  0  0  0  0  0  0  0  0  0  0
   -8.1664    2.1494   -7.3468 C   0  0  0  0  0  0  0  0  0  0  0  0
   -9.1971    3.9626   -5.9471 C   0  0  0  0  0  0  0  0  0  0  0  0
  -10.6425    2.5839   -7.4697 C   0  0  0  0  0  0  0  0  0  0  0  0
   -9.2629    3.2112   -7.2750 C   0  0  0  0  0  0  0  0  0  0  0  0
   -8.8524    4.6795  -10.5364 N   0  0  0  0  0  0  0  0  0  0  0  0
   -9.2491    2.4862   -9.8548 O   0  0  0  0  0  0  0  0  0  0  0  0
   -9.7442    4.3173  -17.0871 O   0  0  0  0  0  0  0  0  0  0  0  0
   -7.6698    5.3907  -16.9746 O   0  0  0  0  0  0  0  0  0  0  0  0
   -9.0435    4.1643   -8.3214 O   0  0  0  0  0  0  0  0  0  0  0  0
   -8.8590    2.5441  -14.6697 H   0  0  0  0  0  0  0  0  0  0  0  0
   -8.9212    2.3684  -12.2417 H   0  0  0  0  0  0  0  0  0  0  0  0
   -8.6957    6.8704  -14.3939 H   0  0  0  0  0  0  0  0  0  0  0  0
   -8.0299    7.6194  -11.7425 H   0  0  0  0  0  0  0  0  0  0  0  0
   -9.7966    7.3563  -11.5923 H   0  0  0  0  0  0  0  0  0  0  0  0
   -9.3575    6.4479   -9.4855 H   0  0  0  0  0  0  0  0  0  0  0  0
   -6.4755    6.0179  -10.3941 H   0  0  0  0  0  0  0  0  0  0  0  0
   -7.0930    5.7697   -8.7496 H   0  0  0  0  0  0  0  0  0  0  0  0
   -7.0718    7.3985   -9.4528 H   0  0  0  0  0  0  0  0  0  0  0  0
  -11.3920    5.6070  -18.7719 H   0  0  0  0  0  0  0  0  0  0  0  0
  -10.1006    6.3687  -19.7203 H   0  0  0  0  0  0  0  0  0  0  0  0
  -10.2425    6.7050  -17.9840 H   0  0  0  0  0  0  0  0  0  0  0  0
  -10.8685    3.4512  -19.3856 H   0  0  0  0  0  0  0  0  0  0  0  0
   -9.2762    2.7174  -19.1145 H   0  0  0  0  0  0  0  0  0  0  0  0
   -9.4987    3.8965  -20.4214 H   0  0  0  0  0  0  0  0  0  0  0  0
   -6.4408    6.5186  -19.0994 H   0  0  0  0  0  0  0  0  0  0  0  0
   -8.0462    7.2197  -18.8190 H   0  0  0  0  0  0  0  0  0  0  0  0
   -7.7591    6.2023  -20.2439 H   0  0  0  0  0  0  0  0  0  0  0  0
   -5.9409    4.3041  -18.7202 H   0  0  0  0  0  0  0  0  0  0  0  0
   -7.1841    3.6631  -19.8115 H   0  0  0  0  0  0  0  0  0  0  0  0
   -7.1231    3.1240  -18.1222 H   0  0  0  0  0  0  0  0  0  0  0  0
   -8.2102    1.6078   -8.2985 H   0  0  0  0  0  0  0  0  0  0  0  0
   -7.1699    2.5910   -7.2436 H   0  0  0  0  0  0  0  0  0  0  0  0
   -8.2961    1.3995   -6.5581 H   0  0  0  0  0  0  0  0  0  0  0  0
   -9.9820    4.7255   -5.8913 H   0  0  0  0  0  0  0  0  0  0  0  0
   -8.2434    4.4931   -5.8456 H   0  0  0  0  0  0  0  0  0  0  0  0
   -9.3100    3.2859   -5.0940 H   0  0  0  0  0  0  0  0  0  0  0  0
  -11.4291    3.3453   -7.4182 H   0  0  0  0  0  0  0  0  0  0  0  0
  -10.7201    2.0715   -8.4341 H   0  0  0  0  0  0  0  0  0  0  0  0
  -10.8582    1.8622   -6.6735 H   0  0  0  0  0  0  0  0  0  0  0  0
  1  5  1  0  0  0  0
  1 24  1  0  0  0  0
  1 25  1  0  0  0  0
  2  3  1  0  0  0  0
  2  5  2  0  0  0  0
  3  7  2  0  0  0  0
  4  5  1  0  0  0  0
  4  6  2  0  0  0  0
  6  7  1  0  0  0  0
  6  9  1  0  0  0  0
  7 22  1  0  0  0  0
  8 22  1  0  0  0  0
  8 23  2  0  0  0  0
  8 26  1  0  0  0  0
  9 10  1  0  0  0  0
 10 13  1  1  0  0  0
 10 22  1  0  0  0  0
 11 12  1  0  0  0  0
 11 14  1  0  0  0  0
 11 15  1  0  0  0  0
 11 24  1  0  0  0  0
 12 16  1  0  0  0  0
 12 17  1  0  0  0  0
 12 25  1  0  0  0  0
 18 21  1  0  0  0  0
 19 21  1  0  0  0  0
 20 21  1  0  0  0  0
 21 26  1  0  0  0  0
  2 27  1  0  0  0  0
  3 28  1  0  0  0  0
  4 29  1  0  0  0  0
  9 30  1  0  0  0  0
  9 31  1  0  0  0  0
 10 32  1  0  0  0  0
 13 33  1  0  0  0  0
 13 34  1  0  0  0  0
 13 35  1  0  0  0  0
 14 36  1  0  0  0  0
 14 37  1  0  0  0  0
 14 38  1  0  0  0  0
 15 39  1  0  0  0  0
 15 40  1  0  0  0  0
 15 41  1  0  0  0  0
 16 42  1  0  0  0  0
 16 43  1  0  0  0  0
 16 44  1  0  0  0  0
 17 45  1  0  0  0  0
 17 46  1  0  0  0  0
 17 47  1  0  0  0  0
 18 48  1  0  0  0  0
 18 49  1  0  0  0  0
 18 50  1  0  0  0  0
 19 51  1  0  0  0  0
 19 52  1  0  0  0  0
 19 53  1  0  0  0  0
 20 54  1  0  0  0  0
 20 55  1  0  0  0  0
 20 56  1  0  0  0  0
M  END
> <id>
EN300-27148206

> <smiles>
C[C@H]1CC=2C=C(C=CC2N1C(=O)OC(C)(C)C)B3OC(C)(C)C(C)(C)O3

> <MDLNUMBER>
MFCD33020648

> <IUPAC Name>
tert-butyl (2S)-2-methyl-5-(4,4,5,5-tetramethyl-1,3,2-dioxaborolan-2-yl)-2,3-dihydro-1H-indole-1-carboxylate

> <Purity>
95

> <URL>
https://www.enaminestore.com/catalog/EN300-27148206

> <ROCS_ShapeQuery>
_x0404_0B

> <ROCS_TanimotoCombo>
0.438 

> <ROCS_ShapeTanimoto>
0.398 

> <ROCS_ColorTanimoto>
0.041 

> <ROCS_RefTversky>
0.347 

> <ROCS_RefColorTversky>
0.045 

> <ROCS_RefTverskyCombo>
0.391 

> <ROCS_FitTversky>
1.589 

> <ROCS_FitColorTversky>
0.309 

> <ROCS_FitTverskyCombo>
1.898 

> <ROCS_ColorScore>
-3.232

> <ROCS_Overlap>
2316.439

> <ROCS_Rank>
244                 

$$$$
untitled-dbase-17515_443
  -OEChem-08222312023D

 49 50  0     1  0  0  0  0  0999 V2000
   -9.6564    4.5341  -17.1649 C   0  0  0  0  0  0  0  0  0  0  0  0
   -9.2117    4.3811  -15.8517 C   0  0  0  0  0  0  0  0  0  0  0  0
   -8.8072    5.0752  -18.1302 C   0  0  0  0  0  0  0  0  0  0  0  0
   -7.9179    4.7692  -15.5038 C   0  0  0  0  0  0  0  0  0  0  0  0
   -7.5134    5.4634  -17.7823 C   0  0  0  0  0  0  0  0  0  0  0  0
   -7.0687    5.3104  -16.4691 C   0  0  0  0  0  0  0  0  0  0  0  0
   -8.8592    4.5866   -9.9416 C   0  0  0  0  0  0  0  0  0  0  0  0
   -7.7070    5.8525  -13.2076 C   0  0  0  0  0  0  0  0  0  0  0  0
   -8.8130    5.6699  -12.1721 C   0  0  0  0  0  0  0  0  0  0  0  0
   -7.9713    3.3266  -11.9185 C   0  0  0  0  0  0  0  0  0  0  0  0
   -7.4573    4.5910  -14.0628 C   0  0  1  0  0  0  0  0  0  0  0  0
   -8.0833    3.3248  -13.4410 C   0  0  1  0  0  0  0  0  0  0  0  0
   -6.6239    6.0398  -18.8350 C   0  0  0  0  0  0  0  0  0  0  0  0
   -5.6815    5.7266  -16.0959 C   0  0  0  0  0  0  0  0  0  0  0  0
  -10.7077    4.2519   -7.7839 C   0  0  0  0  0  0  0  0  0  0  0  0
   -9.8487    1.8950   -7.6566 C   0  0  0  0  0  0  0  0  0  0  0  0
   -8.2891    3.8188   -7.2387 C   0  0  0  0  0  0  0  0  0  0  0  0
   -9.5076    3.3373   -8.0249 C   0  0  0  0  0  0  0  0  0  0  0  0
   -8.5570    4.5199  -11.3057 N   0  0  0  0  0  0  0  0  0  0  0  0
   -8.8311    5.6181   -9.2735 O   0  0  0  0  0  0  0  0  0  0  0  0
   -7.4302    2.1623  -13.9509 O   0  0  0  0  0  0  0  0  0  0  0  0
   -9.1887    3.3623   -9.4209 O   0  0  0  0  0  0  0  0  0  0  0  0
  -10.6643    4.2325  -17.4357 H   0  0  0  0  0  0  0  0  0  0  0  0
   -9.8811    3.9579  -15.1073 H   0  0  0  0  0  0  0  0  0  0  0  0
   -9.1631    5.1897  -19.1506 H   0  0  0  0  0  0  0  0  0  0  0  0
   -7.9657    6.7062  -13.8613 H   0  0  0  0  0  0  0  0  0  0  0  0
   -6.7733    6.1461  -12.6957 H   0  0  0  0  0  0  0  0  0  0  0  0
   -8.8824    6.5563  -11.5249 H   0  0  0  0  0  0  0  0  0  0  0  0
   -9.7820    5.5660  -12.6782 H   0  0  0  0  0  0  0  0  0  0  0  0
   -8.4168    2.4029  -11.5152 H   0  0  0  0  0  0  0  0  0  0  0  0
   -6.9114    3.2891  -11.6093 H   0  0  0  0  0  0  0  0  0  0  0  0
   -6.3449    4.4190  -14.1358 H   0  0  0  0  0  0  0  0  0  0  0  0
   -9.1534    3.2515  -13.7260 H   0  0  0  0  0  0  0  0  0  0  0  0
   -6.7415    7.1287  -18.8765 H   0  0  0  0  0  0  0  0  0  0  0  0
   -5.5708    5.8090  -18.6335 H   0  0  0  0  0  0  0  0  0  0  0  0
   -6.8588    5.6245  -19.8227 H   0  0  0  0  0  0  0  0  0  0  0  0
   -4.9876    4.8894  -16.2278 H   0  0  0  0  0  0  0  0  0  0  0  0
   -5.3417    6.5654  -16.7146 H   0  0  0  0  0  0  0  0  0  0  0  0
   -5.6370    6.0590  -15.0521 H   0  0  0  0  0  0  0  0  0  0  0  0
  -10.4670    5.2881   -8.0470 H   0  0  0  0  0  0  0  0  0  0  0  0
  -11.5782    3.9378   -8.3690 H   0  0  0  0  0  0  0  0  0  0  0  0
  -10.9873    4.2590   -6.7242 H   0  0  0  0  0  0  0  0  0  0  0  0
   -8.9904    1.2352   -7.8280 H   0  0  0  0  0  0  0  0  0  0  0  0
  -10.6616    1.5134   -8.2851 H   0  0  0  0  0  0  0  0  0  0  0  0
  -10.1502    1.8062   -6.6080 H   0  0  0  0  0  0  0  0  0  0  0  0
   -7.4281    3.1629   -7.4114 H   0  0  0  0  0  0  0  0  0  0  0  0
   -8.0072    4.8395   -7.5169 H   0  0  0  0  0  0  0  0  0  0  0  0
   -8.4859    3.7934   -6.1608 H   0  0  0  0  0  0  0  0  0  0  0  0
   -7.5225    2.1971  -14.9149 H   0  0  0  0  0  0  0  0  0  0  0  0
  1  2  2  0  0  0  0
  1  3  1  0  0  0  0
  2  4  1  0  0  0  0
  3  5  2  0  0  0  0
  4  6  2  0  0  0  0
  4 11  1  0  0  0  0
  5  6  1  0  0  0  0
  5 13  1  0  0  0  0
  6 14  1  0  0  0  0
  7 19  1  0  0  0  0
  7 20  2  0  0  0  0
  7 22  1  0  0  0  0
  8  9  1  0  0  0  0
  8 11  1  0  0  0  0
  9 19  1  0  0  0  0
 10 12  1  0  0  0  0
 10 19  1  0  0  0  0
 11 12  1  0  0  0  0
 12 21  1  0  0  0  0
 15 18  1  0  0  0  0
 16 18  1  0  0  0  0
 17 18  1  0  0  0  0
 18 22  1  0  0  0  0
  1 23  1  0  0  0  0
  2 24  1  0  0  0  0
  3 25  1  0  0  0  0
  8 26  1  0  0  0  0
  8 27  1  0  0  0  0
  9 28  1  0  0  0  0
  9 29  1  0  0  0  0
 10 30  1  0  0  0  0
 10 31  1  0  0  0  0
 11 32  1  0  0  0  0
 12 33  1  0  0  0  0
 13 34  1  0  0  0  0
 13 35  1  0  0  0  0
 13 36  1  0  0  0  0
 14 37  1  0  0  0  0
 14 38  1  0  0  0  0
 14 39  1  0  0  0  0
 15 40  1  0  0  0  0
 15 41  1  0  0  0  0
 15 42  1  0  0  0  0
 16 43  1  0  0  0  0
 16 44  1  0  0  0  0
 16 45  1  0  0  0  0
 17 46  1  0  0  0  0
 17 47  1  0  0  0  0
 17 48  1  0  0  0  0
 21 49  1  0  0  0  0
M  END
> <id>
EN300-94537

> <smiles>
CC=1C=CC=C(C2CCN(CC2O)C(=O)OC(C)(C)C)C1C

> <MDLNUMBER>
MFCD20502183

> <IUPAC Name>
tert-butyl 4-(2,3-dimethylphenyl)-3-hydroxypiperidine-1-carboxylate

> <CAS>
1354960-81-8

> <URL>
https://www.enaminestore.com/catalog/EN300-94537

> <ROCS_ShapeQuery>
_x0404_0B

> <ROCS_TanimotoCombo>
0.438 

> <ROCS_ShapeTanimoto>
0.348 

> <ROCS_ColorTanimoto>
0.090 

> <ROCS_RefTversky>
0.307 

> <ROCS_RefColorTversky>
0.094 

> <ROCS_RefTverskyCombo>
0.401 

> <ROCS_FitTversky>
1.621 

> <ROCS_FitColorTversky>
0.713 

> <ROCS_FitTverskyCombo>
2.334 

> <ROCS_ColorScore>
-6.761

> <ROCS_Overlap>
2049.227

> <ROCS_Rank>
245                 

$$$$
untitled-dbase-6931_1197
  -OEChem-08222312023D

 43 44  0     1  0  0  0  0  0999 V2000
   -7.0634    5.3174  -16.4426 C   0  0  0  0  0  0  0  0  0  0  0  0
   -9.2168    4.3860  -15.8667 C   0  0  0  0  0  0  0  0  0  0  0  0
   -8.7759    5.0986  -18.1327 C   0  0  0  0  0  0  0  0  0  0  0  0
   -7.9282    4.7695  -15.4953 C   0  0  0  0  0  0  0  0  0  0  0  0
   -7.4873    5.4821  -17.7613 C   0  0  0  0  0  0  0  0  0  0  0  0
   -9.6408    4.5506  -17.1854 C   0  0  0  0  0  0  0  0  0  0  0  0
   -8.8602    4.5743   -9.9321 C   0  0  0  0  0  0  0  0  0  0  0  0
   -7.7166    5.8492  -13.1975 C   0  0  0  0  0  0  0  0  0  0  0  0
   -8.8205    5.6618  -12.1607 C   0  0  0  0  0  0  0  0  0  0  0  0
   -7.9720    3.3203  -11.9126 C   0  0  0  0  0  0  0  0  0  0  0  0
   -7.4648    4.5899  -14.0554 C   0  0  1  0  0  0  0  0  0  0  0  0
   -8.0864    3.3209  -13.4349 C   0  0  1  0  0  0  0  0  0  0  0  0
  -10.7045    4.2307   -7.7721 C   0  0  0  0  0  0  0  0  0  0  0  0
   -9.8388    1.8759   -7.6504 C   0  0  0  0  0  0  0  0  0  0  0  0
   -8.2838    3.8032   -7.2315 C   0  0  0  0  0  0  0  0  0  0  0  0
   -9.5023    3.3198   -8.0166 C   0  0  0  0  0  0  0  0  0  0  0  0
   -8.5600    4.5109  -11.2967 N   0  0  0  0  0  0  0  0  0  0  0  0
   -8.8339    5.6047   -9.2621 O   0  0  0  0  0  0  0  0  0  0  0  0
   -7.4309    2.1611  -13.9479 O   0  0  0  0  0  0  0  0  0  0  0  0
   -9.1856    3.3482   -9.4130 O   0  0  0  0  0  0  0  0  0  0  0  0
   -6.6567    6.0083  -18.6708 F   0  0  0  0  0  0  0  0  0  0  0  0
  -10.8781    4.1822  -17.5422 F   0  0  0  0  0  0  0  0  0  0  0  0
   -6.0576    5.6193  -16.1630 H   0  0  0  0  0  0  0  0  0  0  0  0
   -9.8974    3.9577  -15.1356 H   0  0  0  0  0  0  0  0  0  0  0  0
   -9.1053    5.2262  -19.1592 H   0  0  0  0  0  0  0  0  0  0  0  0
   -7.9786    6.7033  -13.8493 H   0  0  0  0  0  0  0  0  0  0  0  0
   -6.7829    6.1444  -12.6866 H   0  0  0  0  0  0  0  0  0  0  0  0
   -8.8913    6.5468  -11.5118 H   0  0  0  0  0  0  0  0  0  0  0  0
   -9.7900    5.5561  -12.6654 H   0  0  0  0  0  0  0  0  0  0  0  0
   -8.4144    2.3947  -11.5103 H   0  0  0  0  0  0  0  0  0  0  0  0
   -6.9116    3.2851  -11.6051 H   0  0  0  0  0  0  0  0  0  0  0  0
   -6.3520    4.4211  -14.1304 H   0  0  0  0  0  0  0  0  0  0  0  0
   -9.1567    3.2452  -13.7184 H   0  0  0  0  0  0  0  0  0  0  0  0
  -10.4670    5.2681   -8.0337 H   0  0  0  0  0  0  0  0  0  0  0  0
  -11.5750    3.9153   -8.3564 H   0  0  0  0  0  0  0  0  0  0  0  0
  -10.9825    4.2352   -6.7119 H   0  0  0  0  0  0  0  0  0  0  0  0
   -8.9791    1.2188   -7.8242 H   0  0  0  0  0  0  0  0  0  0  0  0
  -10.6517    1.4933   -8.2782 H   0  0  0  0  0  0  0  0  0  0  0  0
  -10.1385    1.7845   -6.6014 H   0  0  0  0  0  0  0  0  0  0  0  0
   -7.4213    3.1500   -7.4067 H   0  0  0  0  0  0  0  0  0  0  0  0
   -8.0052    4.8252   -7.5082 H   0  0  0  0  0  0  0  0  0  0  0  0
   -8.4788    3.7754   -6.1533 H   0  0  0  0  0  0  0  0  0  0  0  0
   -7.5248    2.1974  -14.9117 H   0  0  0  0  0  0  0  0  0  0  0  0
  1  4  2  0  0  0  0
  1  5  1  0  0  0  0
  2  4  1  0  0  0  0
  2  6  2  0  0  0  0
  3  5  2  0  0  0  0
  3  6  1  0  0  0  0
  4 11  1  0  0  0  0
  5 21  1  0  0  0  0
  6 22  1  0  0  0  0
  7 17  1  0  0  0  0
  7 18  2  0  0  0  0
  7 20  1  0  0  0  0
  8  9  1  0  0  0  0
  8 11  1  0  0  0  0
  9 17  1  0  0  0  0
 10 12  1  0  0  0  0
 10 17  1  0  0  0  0
 11 12  1  0  0  0  0
 12 19  1  0  0  0  0
 13 16  1  0  0  0  0
 14 16  1  0  0  0  0
 15 16  1  0  0  0  0
 16 20  1  0  0  0  0
  1 23  1  0  0  0  0
  2 24  1  0  0  0  0
  3 25  1  0  0  0  0
  8 26  1  0  0  0  0
  8 27  1  0  0  0  0
  9 28  1  0  0  0  0
  9 29  1  0  0  0  0
 10 30  1  0  0  0  0
 10 31  1  0  0  0  0
 11 32  1  0  0  0  0
 12 33  1  0  0  0  0
 13 34  1  0  0  0  0
 13 35  1  0  0  0  0
 13 36  1  0  0  0  0
 14 37  1  0  0  0  0
 14 38  1  0  0  0  0
 14 39  1  0  0  0  0
 15 40  1  0  0  0  0
 15 41  1  0  0  0  0
 15 42  1  0  0  0  0
 19 43  1  0  0  0  0
M  END
> <id>
EN300-94546

> <smiles>
CC(C)(C)OC(=O)N1CCC(C(O)C1)C=2C=C(F)C=C(F)C2

> <MDLNUMBER>
MFCD20502191

> <IUPAC Name>
tert-butyl 4-(3,5-difluorophenyl)-3-hydroxypiperidine-1-carboxylate

> <CAS>
1354963-68-0

> <URL>
https://www.enaminestore.com/catalog/EN300-94546

> <ROCS_ShapeQuery>
_x0404_0B

> <ROCS_TanimotoCombo>
0.438 

> <ROCS_ShapeTanimoto>
0.348 

> <ROCS_ColorTanimoto>
0.090 

> <ROCS_RefTversky>
0.307 

> <ROCS_RefColorTversky>
0.094 

> <ROCS_RefTverskyCombo>
0.401 

> <ROCS_FitTversky>
1.613 

> <ROCS_FitColorTversky>
0.714 

> <ROCS_FitTverskyCombo>
2.327 

> <ROCS_ColorScore>
-6.768

> <ROCS_Overlap>
2050.513

> <ROCS_Rank>
246                 

$$$$
untitled-dbase-175820_2616
  -OEChem-08222312023D

 50 50  0     1  0  0  0  0  0999 V2000
   -8.8022    4.6920   -9.2993 C   0  0  0  0  0  0  0  0  0  0  0  0
   -8.2425    5.2933  -14.7619 C   0  0  0  0  0  0  0  0  0  0  0  0
   -8.5979    6.2515  -11.2226 C   0  0  0  0  0  0  0  0  0  0  0  0
   -7.7231    5.9862  -12.4406 C   0  0  0  0  0  0  0  0  0  0  0  0
   -9.7745    4.1181  -11.5643 C   0  0  0  0  0  0  0  0  0  0  0  0
   -8.9413    3.8226  -12.8200 C   0  0  2  0  0  0  0  0  0  0  0  0
  -10.5467    3.2125   -7.5795 C   0  0  0  0  0  0  0  0  0  0  0  0
   -8.8500    1.3685   -7.7520 C   0  0  0  0  0  0  0  0  0  0  0  0
   -8.2051    3.5696   -6.7286 C   0  0  0  0  0  0  0  0  0  0  0  0
   -6.8100    4.9614  -17.2174 C   0  0  0  0  0  0  0  0  0  0  0  0
   -8.1924    2.8874  -17.5286 C   0  0  0  0  0  0  0  0  0  0  0  0
   -9.3130    5.1325  -17.4180 C   0  0  0  0  0  0  0  0  0  0  0  0
   -7.8417    2.7939  -12.5424 C   0  0  0  0  0  0  0  0  0  0  0  0
   -9.0694    2.8795   -7.7829 C   0  0  0  0  0  0  0  0  0  0  0  0
   -8.1460    4.2846  -16.9140 C   0  0  0  0  0  0  0  0  0  0  0  0
   -9.0504    4.9924  -10.6394 N   0  0  0  0  0  0  0  0  0  0  0  0
   -8.3642    5.0635  -13.3849 N   0  0  0  0  0  0  0  0  0  0  0  0
   -8.7069    5.5327   -8.4070 O   0  0  0  0  0  0  0  0  0  0  0  0
   -8.1198    6.4061  -15.2707 O   0  0  0  0  0  0  0  0  0  0  0  0
   -7.4431    2.2248  -13.7741 O   0  0  0  0  0  0  0  0  0  0  0  0
   -8.6707    3.3470   -9.0766 O   0  0  0  0  0  0  0  0  0  0  0  0
   -8.2697    4.1361  -15.4949 O   0  0  0  0  0  0  0  0  0  0  0  0
   -8.0433    6.8428  -10.4873 H   0  0  0  0  0  0  0  0  0  0  0  0
   -9.4880    6.8262  -11.5045 H   0  0  0  0  0  0  0  0  0  0  0  0
   -7.4873    6.9331  -12.9372 H   0  0  0  0  0  0  0  0  0  0  0  0
   -6.7702    5.5357  -12.1390 H   0  0  0  0  0  0  0  0  0  0  0  0
  -10.6936    4.6473  -11.8452 H   0  0  0  0  0  0  0  0  0  0  0  0
  -10.0799    3.1857  -11.0808 H   0  0  0  0  0  0  0  0  0  0  0  0
   -9.6182    3.3806  -13.5595 H   0  0  0  0  0  0  0  0  0  0  0  0
  -10.7084    4.2962   -7.6010 H   0  0  0  0  0  0  0  0  0  0  0  0
  -11.1738    2.7520   -8.3499 H   0  0  0  0  0  0  0  0  0  0  0  0
  -10.8939    2.8676   -6.5988 H   0  0  0  0  0  0  0  0  0  0  0  0
   -7.7913    1.1249   -7.8975 H   0  0  0  0  0  0  0  0  0  0  0  0
   -9.3944    0.8783   -8.5672 H   0  0  0  0  0  0  0  0  0  0  0  0
   -9.1790    0.9317   -6.8035 H   0  0  0  0  0  0  0  0  0  0  0  0
   -7.1454    3.3308   -6.8742 H   0  0  0  0  0  0  0  0  0  0  0  0
   -8.3218    4.6577   -6.7607 H   0  0  0  0  0  0  0  0  0  0  0  0
   -8.4652    3.2210   -5.7225 H   0  0  0  0  0  0  0  0  0  0  0  0
   -6.7727    5.9646  -16.7779 H   0  0  0  0  0  0  0  0  0  0  0  0
   -5.9665    4.3805  -16.8302 H   0  0  0  0  0  0  0  0  0  0  0  0
   -6.6739    5.0916  -18.2971 H   0  0  0  0  0  0  0  0  0  0  0  0
   -9.1493    2.3982  -17.3134 H   0  0  0  0  0  0  0  0  0  0  0  0
   -7.4143    2.2460  -17.0991 H   0  0  0  0  0  0  0  0  0  0  0  0
   -8.0556    2.9189  -18.6144 H   0  0  0  0  0  0  0  0  0  0  0  0
  -10.2714    4.6473  -17.2005 H   0  0  0  0  0  0  0  0  0  0  0  0
   -9.3170    6.1265  -16.9593 H   0  0  0  0  0  0  0  0  0  0  0  0
   -9.2666    5.2514  -18.5066 H   0  0  0  0  0  0  0  0  0  0  0  0
   -8.2263    2.0137  -11.8885 H   0  0  0  0  0  0  0  0  0  0  0  0
   -6.9899    3.2844  -12.0755 H   0  0  0  0  0  0  0  0  0  0  0  0
   -6.7457    1.5753  -13.5780 H   0  0  0  0  0  0  0  0  0  0  0  0
  1 16  1  0  0  0  0
  1 18  2  0  0  0  0
  1 21  1  0  0  0  0
  2 17  1  0  0  0  0
  2 19  2  0  0  0  0
  2 22  1  0  0  0  0
  3  4  1  0  0  0  0
  3 16  1  0  0  0  0
  4 17  1  0  0  0  0
  5  6  1  0  0  0  0
  5 16  1  0  0  0  0
  6 13  1  1  0  0  0
  6 17  1  0  0  0  0
  7 14  1  0  0  0  0
  8 14  1  0  0  0  0
  9 14  1  0  0  0  0
 10 15  1  0  0  0  0
 11 15  1  0  0  0  0
 12 15  1  0  0  0  0
 13 20  1  0  0  0  0
 14 21  1  0  0  0  0
 15 22  1  0  0  0  0
  3 23  1  0  0  0  0
  3 24  1  0  0  0  0
  4 25  1  0  0  0  0
  4 26  1  0  0  0  0
  5 27  1  0  0  0  0
  5 28  1  0  0  0  0
  6 29  1  0  0  0  0
  7 30  1  0  0  0  0
  7 31  1  0  0  0  0
  7 32  1  0  0  0  0
  8 33  1  0  0  0  0
  8 34  1  0  0  0  0
  8 35  1  0  0  0  0
  9 36  1  0  0  0  0
  9 37  1  0  0  0  0
  9 38  1  0  0  0  0
 10 39  1  0  0  0  0
 10 40  1  0  0  0  0
 10 41  1  0  0  0  0
 11 42  1  0  0  0  0
 11 43  1  0  0  0  0
 11 44  1  0  0  0  0
 12 45  1  0  0  0  0
 12 46  1  0  0  0  0
 12 47  1  0  0  0  0
 13 48  1  0  0  0  0
 13 49  1  0  0  0  0
 20 50  1  0  0  0  0
M  END
> <id>
EN300-7395699

> <smiles>
CC(C)(C)OC(=O)N1CCN([C@@H](CO)C1)C(=O)OC(C)(C)C

> <MDLNUMBER>
MFCD28968067

> <IUPAC Name>
1,4-di-tert-butyl (2R)-2-(hydroxymethyl)piperazine-1,4-dicarboxylate

> <URL>
https://www.enaminestore.com/catalog/EN300-7395699

> <ROCS_ShapeQuery>
_x0404_0B

> <ROCS_TanimotoCombo>
0.438 

> <ROCS_ShapeTanimoto>
0.326 

> <ROCS_ColorTanimoto>
0.112 

> <ROCS_RefTversky>
0.292 

> <ROCS_RefColorTversky>
0.115 

> <ROCS_RefTverskyCombo>
0.408 

> <ROCS_FitTversky>
1.551 

> <ROCS_FitColorTversky>
0.799 

> <ROCS_FitTverskyCombo>
2.350 

> <ROCS_ColorScore>
-8.329

> <ROCS_Overlap>
1949.620

> <ROCS_Rank>
247                 

$$$$
untitled-dbase-83565_7
  -OEChem-08222312023D

 50 55  0     1  0  0  0  0  0999 V2000
   -8.2862    3.8742  -18.1447 C   0  0  0  0  0  0  0  0  0  0  0  0
   -8.6554    5.1642  -18.5527 C   0  0  0  0  0  0  0  0  0  0  0  0
   -8.1588    3.5631  -16.7901 C   0  0  0  0  0  0  0  0  0  0  0  0
   -8.8996    6.1693  -17.6132 C   0  0  0  0  0  0  0  0  0  0  0  0
   -8.3910    4.5640  -15.8633 C   0  0  0  0  0  0  0  0  0  0  0  0
   -8.7587    5.8703  -16.2656 C   0  0  0  0  0  0  0  0  0  0  0  0
   -7.2942    6.0864  -11.7544 C   0  0  0  0  0  0  0  0  0  0  0  0
   -9.8081    4.0968  -13.8886 C   0  0  0  0  0  0  0  0  0  0  0  0
   -7.5722    4.7488  -11.0534 C   0  0  2  0  0  0  0  0  0  0  0  0
   -8.2132    3.7601  -12.0701 C   0  0  1  0  0  0  0  0  0  0  0  0
   -8.5861    5.1096   -9.9294 C   0  0  1  0  0  0  0  0  0  0  0  0
   -8.5351    6.4358  -12.6246 C   0  0  1  0  0  0  0  0  0  0  0  0
   -9.6494    4.2806  -12.3941 C   0  0  1  0  0  0  0  0  0  0  0  0
   -8.1979    6.0450  -14.0862 C   0  0  1  0  0  0  0  0  0  0  0  0
   -7.5018    3.6810  -13.4606 C   0  0  2  0  0  0  0  0  0  0  0  0
   -9.8032    5.8245  -10.5933 C   0  0  2  0  0  0  0  0  0  0  0  0
   -8.4166    4.5225  -14.3694 C   0  0  2  0  0  0  0  0  0  0  0  0
   -9.9477    4.2649   -8.0107 C   0  0  0  0  0  0  0  0  0  0  0  0
  -10.2197    7.3688  -14.9316 C   0  0  0  0  0  0  0  0  0  0  0  0
   -9.0070    3.8903   -9.1074 C   0  0  0  0  0  0  0  0  0  0  0  0
   -8.9416    6.7298  -15.1559 N   0  0  2  0  0  0  0  0  0  0  0  0
   -9.7415    5.7330  -12.0793 N   0  0  1  0  0  0  0  0  0  0  0  0
   -7.5043    2.3114  -13.8573 O   0  0  0  0  0  0  0  0  0  0  0  0
   -9.8470    7.1798  -10.1404 O   0  0  0  0  0  0  0  0  0  0  0  0
   -8.1103    3.1055  -18.8926 H   0  0  0  0  0  0  0  0  0  0  0  0
   -8.7557    5.3828  -19.6127 H   0  0  0  0  0  0  0  0  0  0  0  0
   -7.9051    2.5533  -16.4917 H   0  0  0  0  0  0  0  0  0  0  0  0
   -9.1859    7.1593  -17.9521 H   0  0  0  0  0  0  0  0  0  0  0  0
   -7.1239    6.8784  -11.0130 H   0  0  0  0  0  0  0  0  0  0  0  0
   -6.3677    6.0320  -12.3360 H   0  0  0  0  0  0  0  0  0  0  0  0
  -10.0184    3.0486  -14.1382 H   0  0  0  0  0  0  0  0  0  0  0  0
  -10.6338    4.6927  -14.2970 H   0  0  0  0  0  0  0  0  0  0  0  0
   -6.6494    4.3360  -10.6319 H   0  0  0  0  0  0  0  0  0  0  0  0
   -8.2775    2.7625  -11.6188 H   0  0  0  0  0  0  0  0  0  0  0  0
   -8.0922    5.8032   -9.2345 H   0  0  0  0  0  0  0  0  0  0  0  0
   -8.6861    7.5187  -12.5635 H   0  0  0  0  0  0  0  0  0  0  0  0
  -10.4299    3.7149  -11.8720 H   0  0  0  0  0  0  0  0  0  0  0  0
   -7.1374    6.2883  -14.2672 H   0  0  0  0  0  0  0  0  0  0  0  0
   -6.4610    4.0169  -13.4328 H   0  0  0  0  0  0  0  0  0  0  0  0
  -10.7426    5.3749  -10.2489 H   0  0  0  0  0  0  0  0  0  0  0  0
   -9.4666    4.9944   -7.3486 H   0  0  0  0  0  0  0  0  0  0  0  0
  -10.2188    3.3894   -7.4112 H   0  0  0  0  0  0  0  0  0  0  0  0
  -10.8577    4.7211   -8.4146 H   0  0  0  0  0  0  0  0  0  0  0  0
  -10.1646    7.9927  -14.0273 H   0  0  0  0  0  0  0  0  0  0  0  0
  -10.4711    7.9993  -15.7971 H   0  0  0  0  0  0  0  0  0  0  0  0
  -10.9956    6.6003  -14.8000 H   0  0  0  0  0  0  0  0  0  0  0  0
   -9.4834    3.1633   -9.7692 H   0  0  0  0  0  0  0  0  0  0  0  0
   -8.1152    3.4226   -8.6841 H   0  0  0  0  0  0  0  0  0  0  0  0
   -7.0185    1.8255  -13.1731 H   0  0  0  0  0  0  0  0  0  0  0  0
   -9.9439    7.1415   -9.1775 H   0  0  0  0  0  0  0  0  0  0  0  0
  1  2  2  0  0  0  0
  1  3  1  0  0  0  0
  2  4  1  0  0  0  0
  3  5  2  0  0  0  0
  4  6  2  0  0  0  0
  5  6  1  0  0  0  0
  5 17  1  1  0  0  0
  6 21  1  0  0  0  0
  7  9  1  1  0  0  0
  7 12  1  6  0  0  0
  8 13  1  1  0  0  0
  8 17  1  0  0  0  0
  9 10  1  0  0  0  0
  9 11  1  0  0  0  0
 10 13  1  0  0  0  0
 10 15  1  0  0  0  0
 11 16  1  0  0  0  0
 11 20  1  6  0  0  0
 12 14  1  0  0  0  0
 12 22  1  0  0  0  0
 13 22  1  0  0  0  0
 14 17  1  0  0  0  0
 14 21  1  1  0  0  0
 15 17  1  0  0  0  0
 15 23  1  1  0  0  0
 16 22  1  0  0  0  0
 16 24  1  1  0  0  0
 18 20  1  0  0  0  0
 19 21  1  0  0  0  0
  1 25  1  0  0  0  0
  2 26  1  0  0  0  0
  3 27  1  0  0  0  0
  4 28  1  0  0  0  0
  7 29  1  0  0  0  0
  7 30  1  0  0  0  0
  8 31  1  0  0  0  0
  8 32  1  0  0  0  0
  9 33  1  0  0  0  0
 10 34  1  0  0  0  0
 11 35  1  0  0  0  0
 12 36  1  0  0  0  0
 13 37  1  0  0  0  0
 14 38  1  0  0  0  0
 15 39  1  0  0  0  0
 16 40  1  0  0  0  0
 18 41  1  0  0  0  0
 18 42  1  0  0  0  0
 18 43  1  0  0  0  0
 19 44  1  0  0  0  0
 19 45  1  0  0  0  0
 19 46  1  0  0  0  0
 20 47  1  0  0  0  0
 20 48  1  0  0  0  0
 23 49  1  0  0  0  0
 24 50  1  0  0  0  0
M  END
> <id>
EN300-26869018

> <smiles>
CC[C@@H]1[C@@H](O)N2[C@H]3C[C@@]45[C@H](O)C3[C@H]1C[C@H]2[C@@H]5N(C)C=6C=CC=CC64

> <IUPAC Name>
(1R,9R,10S,12R,13S,14R,16S,18R)-13-ethyl-8-methyl-8,15-diazahexacyclo[14.2.1.0^{1,9}.0^{2,7}.0^{10,15}.0^{12,17}]nonadeca-2(7),3,5-triene-14,18-diol

> <URL>
https://www.enaminestore.com/catalog/EN300-26869018

> <ROCS_ShapeQuery>
_x0404_0B

> <ROCS_TanimotoCombo>
0.438 

> <ROCS_ShapeTanimoto>
0.319 

> <ROCS_ColorTanimoto>
0.119 

> <ROCS_RefTversky>
0.294 

> <ROCS_RefColorTversky>
0.147 

> <ROCS_RefTverskyCombo>
0.441 

> <ROCS_FitTversky>
1.371 

> <ROCS_FitColorTversky>
0.384 

> <ROCS_FitTverskyCombo>
1.755 

> <ROCS_ColorScore>
-10.751

> <ROCS_Overlap>
1962.720

> <ROCS_Rank>
248                 

$$$$
untitled-dbase-92175_403
  -OEChem-08222312023D

 49 51  0     0  0  0  0  0  0999 V2000
  -10.3077    3.8285  -17.9122 C   0  0  0  0  0  0  0  0  0  0  0  0
  -10.0794    4.5347  -16.7364 C   0  0  0  0  0  0  0  0  0  0  0  0
   -9.2816    3.7668  -18.8412 C   0  0  0  0  0  0  0  0  0  0  0  0
   -8.8495    5.1490  -16.5286 C   0  0  0  0  0  0  0  0  0  0  0  0
   -7.8886    5.0280  -17.5195 C   0  0  0  0  0  0  0  0  0  0  0  0
   -9.2649    4.9563   -9.0744 C   0  0  0  0  0  0  0  0  0  0  0  0
   -9.8889    5.8581  -14.3444 C   0  0  0  0  0  0  0  0  0  0  0  0
   -7.3918    5.4502  -14.4075 C   0  0  0  0  0  0  0  0  0  0  0  0
   -9.7353    6.5611  -12.9919 C   0  0  0  0  0  0  0  0  0  0  0  0
   -7.2358    6.1840  -13.0725 C   0  0  0  0  0  0  0  0  0  0  0  0
   -8.3783    6.6224  -10.8110 C   0  0  0  0  0  0  0  0  0  0  0  0
   -8.7021    4.6394  -11.5733 C   0  0  0  0  0  0  0  0  0  0  0  0
   -8.6174    5.9220  -15.2269 C   0  0  0  0  0  0  0  0  0  0  0  0
   -8.5095    6.0305  -12.2388 C   0  0  0  0  0  0  0  0  0  0  0  0
   -9.0718    3.3129   -6.7477 C   0  0  0  0  0  0  0  0  0  0  0  0
   -9.4587    1.3812   -8.3060 C   0  0  0  0  0  0  0  0  0  0  0  0
   -7.4215    2.8237   -8.5839 C   0  0  0  0  0  0  0  0  0  0  0  0
   -8.8931    2.7936   -8.1736 C   0  0  0  0  0  0  0  0  0  0  0  0
   -8.0736    4.3504  -18.6746 N   0  0  0  0  0  0  0  0  0  0  0  0
   -8.8522    5.3460  -10.3181 N   0  0  0  0  0  0  0  0  0  0  0  0
   -9.3003    5.6963   -8.0952 O   0  0  0  0  0  0  0  0  0  0  0  0
   -8.3780    7.2802  -15.6254 O   0  0  0  0  0  0  0  0  0  0  0  0
   -9.6315    3.6390   -9.0624 O   0  0  0  0  0  0  0  0  0  0  0  0
   -6.1798    5.8440  -17.3024 Br  0  0  0  0  0  0  0  0  0  0  0  0
  -11.2588    3.3421  -18.0959 H   0  0  0  0  0  0  0  0  0  0  0  0
  -10.8660    4.6003  -15.9896 H   0  0  0  0  0  0  0  0  0  0  0  0
   -9.4094    3.2288  -19.7748 H   0  0  0  0  0  0  0  0  0  0  0  0
  -10.1594    4.8085  -14.1681 H   0  0  0  0  0  0  0  0  0  0  0  0
  -10.7325    6.3178  -14.8757 H   0  0  0  0  0  0  0  0  0  0  0  0
   -6.4754    5.6060  -14.9916 H   0  0  0  0  0  0  0  0  0  0  0  0
   -7.4681    4.3715  -14.2160 H   0  0  0  0  0  0  0  0  0  0  0  0
   -9.6380    7.6425  -13.1477 H   0  0  0  0  0  0  0  0  0  0  0  0
  -10.6502    6.4135  -12.4048 H   0  0  0  0  0  0  0  0  0  0  0  0
   -6.3686    5.7762  -12.5386 H   0  0  0  0  0  0  0  0  0  0  0  0
   -7.0233    7.2453  -13.2481 H   0  0  0  0  0  0  0  0  0  0  0  0
   -7.3626    6.8457  -10.4699 H   0  0  0  0  0  0  0  0  0  0  0  0
   -9.0411    7.4584  -10.5710 H   0  0  0  0  0  0  0  0  0  0  0  0
   -9.5931    4.0804  -11.8706 H   0  0  0  0  0  0  0  0  0  0  0  0
   -7.8304    3.9780  -11.5742 H   0  0  0  0  0  0  0  0  0  0  0  0
   -8.6671    4.3265   -6.6485 H   0  0  0  0  0  0  0  0  0  0  0  0
  -10.1264    3.3293   -6.4536 H   0  0  0  0  0  0  0  0  0  0  0  0
   -8.5228    2.6895   -6.0328 H   0  0  0  0  0  0  0  0  0  0  0  0
   -9.3325    1.0046   -9.3275 H   0  0  0  0  0  0  0  0  0  0  0  0
  -10.5359    1.3717   -8.1043 H   0  0  0  0  0  0  0  0  0  0  0  0
   -8.9708    0.6844   -7.6168 H   0  0  0  0  0  0  0  0  0  0  0  0
   -7.2930    2.4512   -9.6066 H   0  0  0  0  0  0  0  0  0  0  0  0
   -7.0085    3.8362   -8.5304 H   0  0  0  0  0  0  0  0  0  0  0  0
   -6.8237    2.1693   -7.9391 H   0  0  0  0  0  0  0  0  0  0  0  0
   -8.2284    7.7868  -14.8114 H   0  0  0  0  0  0  0  0  0  0  0  0
  1  2  1  0  0  0  0
  1  3  2  0  0  0  0
  2  4  2  0  0  0  0
  3 19  1  0  0  0  0
  4  5  1  0  0  0  0
  4 13  1  0  0  0  0
  5 19  2  0  0  0  0
  5 24  1  0  0  0  0
  6 20  1  0  0  0  0
  6 21  2  0  0  0  0
  6 23  1  0  0  0  0
  7  9  1  0  0  0  0
  7 13  1  0  0  0  0
  8 10  1  0  0  0  0
  8 13  1  0  0  0  0
  9 14  1  0  0  0  0
 10 14  1  0  0  0  0
 11 14  1  0  0  0  0
 11 20  1  0  0  0  0
 12 14  1  0  0  0  0
 12 20  1  0  0  0  0
 13 22  1  0  0  0  0
 15 18  1  0  0  0  0
 16 18  1  0  0  0  0
 17 18  1  0  0  0  0
 18 23  1  0  0  0  0
  1 25  1  0  0  0  0
  2 26  1  0  0  0  0
  3 27  1  0  0  0  0
  7 28  1  0  0  0  0
  7 29  1  0  0  0  0
  8 30  1  0  0  0  0
  8 31  1  0  0  0  0
  9 32  1  0  0  0  0
  9 33  1  0  0  0  0
 10 34  1  0  0  0  0
 10 35  1  0  0  0  0
 11 36  1  0  0  0  0
 11 37  1  0  0  0  0
 12 38  1  0  0  0  0
 12 39  1  0  0  0  0
 15 40  1  0  0  0  0
 15 41  1  0  0  0  0
 15 42  1  0  0  0  0
 16 43  1  0  0  0  0
 16 44  1  0  0  0  0
 16 45  1  0  0  0  0
 17 46  1  0  0  0  0
 17 47  1  0  0  0  0
 17 48  1  0  0  0  0
 22 49  1  0  0  0  0
M  END
> <id>
EN300-7428882

> <smiles>
CC(C)(C)OC(=O)N1CC2(C1)CCC(O)(CC2)C=3C=CC=NC3Br

> <IUPAC Name>
tert-butyl 7-(2-bromopyridin-3-yl)-7-hydroxy-2-azaspiro[3.5]nonane-2-carboxylate

> <CAS>
2309462-50-6

> <URL>
https://www.enaminestore.com/catalog/EN300-7428882

> <ROCS_ShapeQuery>
_x0404_0B

> <ROCS_TanimotoCombo>
0.438 

> <ROCS_ShapeTanimoto>
0.383 

> <ROCS_ColorTanimoto>
0.055 

> <ROCS_RefTversky>
0.333 

> <ROCS_RefColorTversky>
0.061 

> <ROCS_RefTverskyCombo>
0.394 

> <ROCS_FitTversky>
1.639 

> <ROCS_FitColorTversky>
0.357 

> <ROCS_FitTverskyCombo>
1.996 

> <ROCS_ColorScore>
-4.406

> <ROCS_Overlap>
2226.004

> <ROCS_Rank>
249                 

$$$$
untitled-dbase-54075_2
  -OEChem-08222312023D

 34 37  0     0  0  0  0  0  0999 V2000
   -9.8166    4.7174  -18.3447 C   0  0  0  0  0  0  0  0  0  0  0  0
   -9.7889    4.8676  -16.9582 C   0  0  0  0  0  0  0  0  0  0  0  0
   -8.6476    4.8819  -19.0876 C   0  0  0  0  0  0  0  0  0  0  0  0
   -8.3359    6.8284  -11.7148 C   0  0  0  0  0  0  0  0  0  0  0  0
   -9.2220    4.1270  -11.5461 C   0  0  0  0  0  0  0  0  0  0  0  0
   -8.5920    5.1823  -16.3147 C   0  0  0  0  0  0  0  0  0  0  0  0
   -7.4508    5.1967  -18.4440 C   0  0  0  0  0  0  0  0  0  0  0  0
   -8.5123    6.0618  -12.8794 C   0  0  0  0  0  0  0  0  0  0  0  0
   -8.9501    4.7454  -12.7673 C   0  0  0  0  0  0  0  0  0  0  0  0
   -8.6144    6.2337  -10.4768 C   0  0  0  0  0  0  0  0  0  0  0  0
   -9.0283    4.8992  -10.3948 C   0  0  0  0  0  0  0  0  0  0  0  0
   -7.4229    5.3469  -17.0576 C   0  0  0  0  0  0  0  0  0  0  0  0
   -8.6329    5.3233  -14.8793 C   0  0  0  0  0  0  0  0  0  0  0  0
   -9.0741    6.4696   -8.2110 C   0  0  0  0  0  0  0  0  0  0  0  0
   -8.7323    4.9984   -8.0910 C   0  0  0  0  0  0  0  0  0  0  0  0
   -6.2366    5.3587  -19.3025 C   0  0  0  0  0  0  0  0  0  0  0  0
   -8.3204    6.4031  -14.1986 N   0  0  0  0  0  0  0  0  0  0  0  0
   -9.0189    4.2979  -14.0619 N   0  0  0  0  0  0  0  0  0  0  0  0
   -8.4484    7.0274   -9.3689 O   0  0  0  0  0  0  0  0  0  0  0  0
   -9.2770    4.2747   -9.1970 O   0  0  0  0  0  0  0  0  0  0  0  0
   -5.5898    5.8257  -16.1035 I   0  0  0  0  0  0  0  0  0  0  0  0
  -10.7485    4.4723  -18.8459 H   0  0  0  0  0  0  0  0  0  0  0  0
  -10.7109    4.7352  -16.3965 H   0  0  0  0  0  0  0  0  0  0  0  0
   -8.6819    4.7624  -20.1674 H   0  0  0  0  0  0  0  0  0  0  0  0
   -8.0034    7.8601  -11.7769 H   0  0  0  0  0  0  0  0  0  0  0  0
   -9.5533    3.0956  -11.4947 H   0  0  0  0  0  0  0  0  0  0  0  0
  -10.1569    6.6294   -8.2856 H   0  0  0  0  0  0  0  0  0  0  0  0
   -8.7074    7.0178   -7.3376 H   0  0  0  0  0  0  0  0  0  0  0  0
   -7.6479    4.8350   -8.0643 H   0  0  0  0  0  0  0  0  0  0  0  0
   -9.1633    4.5813   -7.1756 H   0  0  0  0  0  0  0  0  0  0  0  0
   -6.1375    6.4013  -19.6234 H   0  0  0  0  0  0  0  0  0  0  0  0
   -5.3289    5.0702  -18.7598 H   0  0  0  0  0  0  0  0  0  0  0  0
   -6.2951    4.7210  -20.1922 H   0  0  0  0  0  0  0  0  0  0  0  0
   -9.3033    3.3721  -14.3544 H   0  0  0  0  0  0  0  0  0  0  0  0
  1  2  2  0  0  0  0
  1  3  1  0  0  0  0
  2  6  1  0  0  0  0
  3  7  2  0  0  0  0
  4  8  2  0  0  0  0
  4 10  1  0  0  0  0
  5  9  2  0  0  0  0
  5 11  1  0  0  0  0
  6 12  2  0  0  0  0
  6 13  1  0  0  0  0
  7 12  1  0  0  0  0
  7 16  1  0  0  0  0
  8  9  1  0  0  0  0
  8 17  1  0  0  0  0
  9 18  1  0  0  0  0
 10 11  2  0  0  0  0
 10 19  1  0  0  0  0
 11 20  1  0  0  0  0
 12 21  1  0  0  0  0
 13 17  2  0  0  0  0
 13 18  1  0  0  0  0
 14 15  1  0  0  0  0
 14 19  1  0  0  0  0
 15 20  1  0  0  0  0
  1 22  1  0  0  0  0
  2 23  1  0  0  0  0
  3 24  1  0  0  0  0
  4 25  1  0  0  0  0
  5 26  1  0  0  0  0
 14 27  1  0  0  0  0
 14 28  1  0  0  0  0
 15 29  1  0  0  0  0
 15 30  1  0  0  0  0
 16 31  1  0  0  0  0
 16 32  1  0  0  0  0
 16 33  1  0  0  0  0
 18 34  1  0  0  0  0
M  END
> <id>
EN300-27192715

> <smiles>
CC=1C=CC=C(C2=NC=3C=C4OCCOC4=CC3N2)C1I

> <IUPAC Name>
5-(2-iodo-3-methylphenyl)-10,13-dioxa-4,6-diazatricyclo[7.4.0.0,3,7]trideca-1,3(7),4,8-tetraene

> <CAS>
1942680-22-9

> <Purity>
95

> <URL>
https://www.enaminestore.com/catalog/EN300-27192715

> <ROCS_ShapeQuery>
_x0404_0B

> <ROCS_TanimotoCombo>
0.438 

> <ROCS_ShapeTanimoto>
0.363 

> <ROCS_ColorTanimoto>
0.075 

> <ROCS_RefTversky>
0.317 

> <ROCS_RefColorTversky>
0.083 

> <ROCS_RefTverskyCombo>
0.400 

> <ROCS_FitTversky>
1.657 

> <ROCS_FitColorTversky>
0.448 

> <ROCS_FitTverskyCombo>
2.105 

> <ROCS_ColorScore>
-5.968

> <ROCS_Overlap>
2118.236

> <ROCS_Rank>
250                 

$$$$
untitled-dbase-45118_13
  -OEChem-08222312023D

 43 45  0     1  0  0  0  0  0999 V2000
   -9.6680    2.0371   -8.5267 C   0  0  0  0  0  0  0  0  0  0  0  0
   -9.5713    2.5001   -7.2115 C   0  0  0  0  0  0  0  0  0  0  0  0
   -8.6086    4.5999   -7.9598 C   0  0  0  0  0  0  0  0  0  0  0  0
   -8.6942    4.1557   -9.2944 C   0  0  0  0  0  0  0  0  0  0  0  0
   -8.3547    4.7147  -10.5545 C   0  0  0  0  0  0  0  0  0  0  0  0
   -9.2227    2.8845   -9.5477 C   0  0  0  0  0  0  0  0  0  0  0  0
   -9.0505    3.7613   -6.9303 C   0  0  0  0  0  0  0  0  0  0  0  0
   -8.6696    3.7915  -11.5241 C   0  0  0  0  0  0  0  0  0  0  0  0
   -7.1635    3.2987  -13.3291 C   0  0  0  0  0  0  0  0  0  0  0  0
   -8.4077    5.8042  -14.6941 C   0  0  0  0  0  0  0  0  0  0  0  0
   -7.7733    6.0213  -10.9370 C   0  0  0  0  0  0  0  0  0  0  0  0
   -8.3195    6.4434  -12.3091 C   0  0  0  0  0  0  0  0  0  0  0  0
   -8.4658    3.9558  -12.9817 C   0  0  2  0  0  0  0  0  0  0  0  0
   -7.2873    5.9736  -17.3219 C   0  0  0  0  0  0  0  0  0  0  0  0
   -8.4477    3.7888  -17.7574 C   0  0  0  0  0  0  0  0  0  0  0  0
   -9.7974    5.8330  -17.2026 C   0  0  0  0  0  0  0  0  0  0  0  0
   -8.4827    5.0923  -16.9625 C   0  0  0  0  0  0  0  0  0  0  0  0
   -9.2003    2.6911  -10.9135 N   0  0  0  0  0  0  0  0  0  0  0  0
   -8.3191    5.3881  -13.3516 N   0  0  0  0  0  0  0  0  0  0  0  0
   -6.0733    3.8505  -13.3150 O   0  0  0  0  0  0  0  0  0  0  0  0
   -8.4847    6.9788  -15.0506 O   0  0  0  0  0  0  0  0  0  0  0  0
   -7.3575    2.0004  -13.6666 O   0  0  0  0  0  0  0  0  0  0  0  0
   -8.3975    4.7532  -15.5738 O   0  0  0  0  0  0  0  0  0  0  0  0
   -8.9381    4.3503   -5.1361 Br  0  0  0  0  0  0  0  0  0  0  0  0
  -10.0753    1.0554   -8.7442 H   0  0  0  0  0  0  0  0  0  0  0  0
   -9.9139    1.8521   -6.4075 H   0  0  0  0  0  0  0  0  0  0  0  0
   -8.2020    5.5841   -7.7422 H   0  0  0  0  0  0  0  0  0  0  0  0
   -8.0451    6.7704  -10.1881 H   0  0  0  0  0  0  0  0  0  0  0  0
   -6.6832    5.9637  -10.9797 H   0  0  0  0  0  0  0  0  0  0  0  0
   -9.3400    6.8591  -12.1853 H   0  0  0  0  0  0  0  0  0  0  0  0
   -7.7131    7.2796  -12.7157 H   0  0  0  0  0  0  0  0  0  0  0  0
   -9.2601    3.4784  -13.5514 H   0  0  0  0  0  0  0  0  0  0  0  0
   -7.3088    6.9102  -16.7534 H   0  0  0  0  0  0  0  0  0  0  0  0
   -6.3378    5.4668  -17.1214 H   0  0  0  0  0  0  0  0  0  0  0  0
   -7.3129    6.2542  -18.3811 H   0  0  0  0  0  0  0  0  0  0  0  0
   -9.3036    3.1534  -17.5026 H   0  0  0  0  0  0  0  0  0  0  0  0
   -7.5498    3.2085  -17.5161 H   0  0  0  0  0  0  0  0  0  0  0  0
   -8.4618    3.9731  -18.8364 H   0  0  0  0  0  0  0  0  0  0  0  0
  -10.6550    5.2011  -16.9448 H   0  0  0  0  0  0  0  0  0  0  0  0
   -9.8559    6.7528  -16.6117 H   0  0  0  0  0  0  0  0  0  0  0  0
   -9.9112    6.0916  -18.2616 H   0  0  0  0  0  0  0  0  0  0  0  0
   -9.5246    1.8589  -11.3849 H   0  0  0  0  0  0  0  0  0  0  0  0
   -6.5162    1.5527  -13.8995 H   0  0  0  0  0  0  0  0  0  0  0  0
  1  2  1  0  0  0  0
  1  6  2  0  0  0  0
  2  7  2  0  0  0  0
  3  4  2  0  0  0  0
  3  7  1  0  0  0  0
  4  5  1  0  0  0  0
  4  6  1  0  0  0  0
  5  8  2  0  0  0  0
  5 11  1  0  0  0  0
  6 18  1  0  0  0  0
  7 24  1  0  0  0  0
  8 13  1  0  0  0  0
  8 18  1  0  0  0  0
  9 13  1  0  0  0  0
  9 20  2  0  0  0  0
  9 22  1  0  0  0  0
 10 19  1  0  0  0  0
 10 21  2  0  0  0  0
 10 23  1  0  0  0  0
 11 12  1  0  0  0  0
 12 19  1  0  0  0  0
 13 19  1  0  0  0  0
 14 17  1  0  0  0  0
 15 17  1  0  0  0  0
 16 17  1  0  0  0  0
 17 23  1  0  0  0  0
  1 25  1  0  0  0  0
  2 26  1  0  0  0  0
  3 27  1  0  0  0  0
 11 28  1  0  0  0  0
 11 29  1  0  0  0  0
 12 30  1  0  0  0  0
 12 31  1  0  0  0  0
 13 32  1  0  0  0  0
 14 33  1  0  0  0  0
 14 34  1  0  0  0  0
 14 35  1  0  0  0  0
 15 36  1  0  0  0  0
 15 37  1  0  0  0  0
 15 38  1  0  0  0  0
 16 39  1  0  0  0  0
 16 40  1  0  0  0  0
 16 41  1  0  0  0  0
 18 42  1  0  0  0  0
 22 43  1  0  0  0  0
M  END
> <id>
EN300-1177937

> <smiles>
CC(C)(C)OC(=O)N1CCC2=C(NC=3C=CC(Br)=CC23)C1C(=O)O

> <IUPAC Name>
6-bromo-2-[(tert-butoxy)carbonyl]-1H,2H,3H,4H,9H-pyrido[3,4-b]indole-1-carboxylic acid

> <CAS>
2137472-31-0

> <URL>
https://www.enaminestore.com/catalog/EN300-1177937

> <ROCS_ShapeQuery>
_x0404_0B

> <ROCS_TanimotoCombo>
0.438 

> <ROCS_ShapeTanimoto>
0.346 

> <ROCS_ColorTanimoto>
0.092 

> <ROCS_RefTversky>
0.310 

> <ROCS_RefColorTversky>
0.100 

> <ROCS_RefTverskyCombo>
0.410 

> <ROCS_FitTversky>
1.496 

> <ROCS_FitColorTversky>
0.541 

> <ROCS_FitTverskyCombo>
2.038 

> <ROCS_ColorScore>
-7.210

> <ROCS_Overlap>
2073.522

> <ROCS_Rank>
251                 

$$$$
untitled-dbase-92381_1069
  -OEChem-08222312023D

 54 56  0     0  0  0  0  0  0999 V2000
   -6.8438    4.8279  -15.4050 C   0  0  0  0  0  0  0  0  0  0  0  0
   -9.1918    4.2692  -15.5125 C   0  0  0  0  0  0  0  0  0  0  0  0
   -6.9597    5.5445  -16.5960 C   0  0  0  0  0  0  0  0  0  0  0  0
   -9.3078    4.9858  -16.7035 C   0  0  0  0  0  0  0  0  0  0  0  0
   -7.9598    4.1902  -14.8632 C   0  0  0  0  0  0  0  0  0  0  0  0
   -8.1917    5.6235  -17.2453 C   0  0  0  0  0  0  0  0  0  0  0  0
   -9.7505    3.1686   -8.2309 C   0  0  0  0  0  0  0  0  0  0  0  0
   -6.7361    3.9767  -12.6227 C   0  0  0  0  0  0  0  0  0  0  0  0
   -9.1312    3.2265  -12.7305 C   0  0  0  0  0  0  0  0  0  0  0  0
   -7.1722    5.2661  -11.9296 C   0  0  0  0  0  0  0  0  0  0  0  0
   -9.5623    4.4897  -11.9786 C   0  0  0  0  0  0  0  0  0  0  0  0
   -9.8011    5.6413   -8.6368 C   0  0  0  0  0  0  0  0  0  0  0  0
   -8.1756    4.2146   -9.8472 C   0  0  0  0  0  0  0  0  0  0  0  0
   -8.9768    6.7000   -9.3485 C   0  0  0  0  0  0  0  0  0  0  0  0
   -7.8325    3.4034  -13.5554 C   0  0  0  0  0  0  0  0  0  0  0  0
   -8.4531    5.0925  -11.0914 C   0  0  0  0  0  0  0  0  0  0  0  0
   -9.5905    2.6818   -5.4170 C   0  0  0  0  0  0  0  0  0  0  0  0
  -12.0648    3.1136   -5.3878 C   0  0  0  0  0  0  0  0  0  0  0  0
  -11.1476    1.1831   -6.7070 C   0  0  0  0  0  0  0  0  0  0  0  0
  -10.8883    2.6081   -6.2200 C   0  0  0  0  0  0  0  0  0  0  0  0
   -9.2666    4.3044   -8.8811 N   0  0  0  0  0  0  0  0  0  0  0  0
   -9.3254    2.0294   -8.4113 O   0  0  0  0  0  0  0  0  0  0  0  0
   -8.8924    6.4223  -10.7422 O   0  0  0  0  0  0  0  0  0  0  0  0
   -7.4207    2.0863  -13.9613 O   0  0  0  0  0  0  0  0  0  0  0  0
  -10.7674    3.4649   -7.3611 O   0  0  0  0  0  0  0  0  0  0  0  0
   -8.3479    6.5941  -18.8593 Br  0  0  0  0  0  0  0  0  0  0  0  0
   -5.8799    4.7718  -14.9059 H   0  0  0  0  0  0  0  0  0  0  0  0
  -10.0666    3.7748  -15.0982 H   0  0  0  0  0  0  0  0  0  0  0  0
   -6.0800    6.0347  -17.0053 H   0  0  0  0  0  0  0  0  0  0  0  0
  -10.2748    5.0379  -17.1968 H   0  0  0  0  0  0  0  0  0  0  0  0
   -5.8235    4.1697  -13.1978 H   0  0  0  0  0  0  0  0  0  0  0  0
   -6.4816    3.2381  -11.8544 H   0  0  0  0  0  0  0  0  0  0  0  0
   -8.9985    2.4165  -11.9984 H   0  0  0  0  0  0  0  0  0  0  0  0
   -9.9506    2.9129  -13.3947 H   0  0  0  0  0  0  0  0  0  0  0  0
   -6.3555    5.6271  -11.2847 H   0  0  0  0  0  0  0  0  0  0  0  0
   -7.3018    6.0402  -12.6995 H   0  0  0  0  0  0  0  0  0  0  0  0
   -9.8847    5.2326  -12.7277 H   0  0  0  0  0  0  0  0  0  0  0  0
  -10.4516    4.2652  -11.3666 H   0  0  0  0  0  0  0  0  0  0  0  0
   -9.8644    5.8668   -7.5640 H   0  0  0  0  0  0  0  0  0  0  0  0
  -10.8294    5.6382   -9.0300 H   0  0  0  0  0  0  0  0  0  0  0  0
   -8.1168    3.1569  -10.1360 H   0  0  0  0  0  0  0  0  0  0  0  0
   -7.2181    4.4809   -9.3851 H   0  0  0  0  0  0  0  0  0  0  0  0
   -9.4602    7.6738   -9.2385 H   0  0  0  0  0  0  0  0  0  0  0  0
   -7.9768    6.7887   -8.9179 H   0  0  0  0  0  0  0  0  0  0  0  0
   -8.7436    2.3198   -6.0109 H   0  0  0  0  0  0  0  0  0  0  0  0
   -9.3750    3.7048   -5.0916 H   0  0  0  0  0  0  0  0  0  0  0  0
   -9.6426    2.0402   -4.5299 H   0  0  0  0  0  0  0  0  0  0  0  0
  -12.9981    3.0625   -5.9601 H   0  0  0  0  0  0  0  0  0  0  0  0
  -11.9267    4.1663   -5.1158 H   0  0  0  0  0  0  0  0  0  0  0  0
  -12.1892    2.5316   -4.4689 H   0  0  0  0  0  0  0  0  0  0  0  0
  -12.0785    1.1300   -7.2831 H   0  0  0  0  0  0  0  0  0  0  0  0
  -10.3302    0.8171   -7.3366 H   0  0  0  0  0  0  0  0  0  0  0  0
  -11.2685    0.4979   -5.8601 H   0  0  0  0  0  0  0  0  0  0  0  0
   -8.1183    1.7463  -14.5428 H   0  0  0  0  0  0  0  0  0  0  0  0
  1  3  1  0  0  0  0
  1  5  2  0  0  0  0
  2  4  2  0  0  0  0
  2  5  1  0  0  0  0
  3  6  2  0  0  0  0
  4  6  1  0  0  0  0
  5 15  1  0  0  0  0
  6 26  1  0  0  0  0
  7 21  1  0  0  0  0
  7 22  2  0  0  0  0
  7 25  1  0  0  0  0
  8 10  1  0  0  0  0
  8 15  1  0  0  0  0
  9 11  1  0  0  0  0
  9 15  1  0  0  0  0
 10 16  1  0  0  0  0
 11 16  1  0  0  0  0
 12 14  1  0  0  0  0
 12 21  1  0  0  0  0
 13 16  1  0  0  0  0
 13 21  1  0  0  0  0
 14 23  1  0  0  0  0
 15 24  1  0  0  0  0
 16 23  1  0  0  0  0
 17 20  1  0  0  0  0
 18 20  1  0  0  0  0
 19 20  1  0  0  0  0
 20 25  1  0  0  0  0
  1 27  1  0  0  0  0
  2 28  1  0  0  0  0
  3 29  1  0  0  0  0
  4 30  1  0  0  0  0
  8 31  1  0  0  0  0
  8 32  1  0  0  0  0
  9 33  1  0  0  0  0
  9 34  1  0  0  0  0
 10 35  1  0  0  0  0
 10 36  1  0  0  0  0
 11 37  1  0  0  0  0
 11 38  1  0  0  0  0
 12 39  1  0  0  0  0
 12 40  1  0  0  0  0
 13 41  1  0  0  0  0
 13 42  1  0  0  0  0
 14 43  1  0  0  0  0
 14 44  1  0  0  0  0
 17 45  1  0  0  0  0
 17 46  1  0  0  0  0
 17 47  1  0  0  0  0
 18 48  1  0  0  0  0
 18 49  1  0  0  0  0
 18 50  1  0  0  0  0
 19 51  1  0  0  0  0
 19 52  1  0  0  0  0
 19 53  1  0  0  0  0
 24 54  1  0  0  0  0
M  END
> <id>
EN300-7429095

> <smiles>
CC(C)(C)OC(=O)N1CCOC2(CCC(O)(CC2)C=3C=CC(Br)=CC3)C1

> <IUPAC Name>
tert-butyl 9-(4-bromophenyl)-9-hydroxy-1-oxa-4-azaspiro[5.5]undecane-4-carboxylate

> <CAS>
2309474-78-8

> <URL>
https://www.enaminestore.com/catalog/EN300-7429095

> <ROCS_ShapeQuery>
_x0404_0B

> <ROCS_TanimotoCombo>
0.438 

> <ROCS_ShapeTanimoto>
0.324 

> <ROCS_ColorTanimoto>
0.114 

> <ROCS_RefTversky>
0.298 

> <ROCS_RefColorTversky>
0.119 

> <ROCS_RefTverskyCombo>
0.417 

> <ROCS_FitTversky>
1.382 

> <ROCS_FitColorTversky>
0.700 

> <ROCS_FitTverskyCombo>
2.082 

> <ROCS_ColorScore>
-8.631

> <ROCS_Overlap>
1989.204

> <ROCS_Rank>
252                 

$$$$
untitled-dbase-39098_701
  -OEChem-08222312023D

 49 51  0     1  0  0  0  0  0999 V2000
   -9.1190    3.8140   -9.7401 C   0  0  0  0  0  0  0  0  0  0  0  0
   -8.8894    6.4564   -8.9000 C   0  0  0  0  0  0  0  0  0  0  0  0
   -9.2039    4.1208   -8.3835 C   0  0  0  0  0  0  0  0  0  0  0  0
   -8.8057    6.1630  -10.2715 C   0  0  0  0  0  0  0  0  0  0  0  0
   -8.9294    4.8297  -10.6833 C   0  0  0  0  0  0  0  0  0  0  0  0
   -9.0903    5.4425   -7.9631 C   0  0  0  0  0  0  0  0  0  0  0  0
   -9.3951    3.0564   -7.4107 C   0  0  0  0  0  0  0  0  0  0  0  0
   -8.8940    5.4136  -16.6941 C   0  0  0  0  0  0  0  0  0  0  0  0
  -10.4442    5.6389  -13.3508 C   0  0  0  0  0  0  0  0  0  0  0  0
   -8.1687    6.6930  -12.6196 C   0  0  0  0  0  0  0  0  0  0  0  0
  -10.4130    6.1017  -14.7981 C   0  0  0  0  0  0  0  0  0  0  0  0
   -8.4207    4.8461  -14.3109 C   0  0  0  0  0  0  0  0  0  0  0  0
   -8.5712    7.2768  -11.2611 C   0  0  1  0  0  0  0  0  0  0  0  0
   -8.9604    5.4255  -12.9890 C   0  0  2  0  0  0  0  0  0  0  0  0
   -7.5857    6.5660  -18.9592 C   0  0  0  0  0  0  0  0  0  0  0  0
   -5.5664    5.2665  -18.2221 C   0  0  0  0  0  0  0  0  0  0  0  0
   -7.6600    4.0511  -18.8910 C   0  0  0  0  0  0  0  0  0  0  0  0
   -7.0928    5.3114  -18.2394 C   0  0  0  0  0  0  0  0  0  0  0  0
   -9.2320    5.4568  -15.3526 N   0  0  0  0  0  0  0  0  0  0  0  0
   -9.7434    8.1449  -11.3869 N   0  0  0  0  0  0  0  0  0  0  0  0
   -9.4840    3.2108   -6.1882 O   0  0  0  0  0  0  0  0  0  0  0  0
   -9.7105    5.4187  -17.6125 O   0  0  0  0  0  0  0  0  0  0  0  0
   -8.8405    4.4137  -11.9847 O   0  0  0  0  0  0  0  0  0  0  0  0
   -9.4712    1.8277   -7.9919 O   0  0  0  0  0  0  0  0  0  0  0  0
   -7.5384    5.3617  -16.8794 O   0  0  0  0  0  0  0  0  0  0  0  0
   -9.1722    5.7526   -6.6621 F   0  0  0  0  0  0  0  0  0  0  0  0
   -9.1874    2.7785  -10.0688 H   0  0  0  0  0  0  0  0  0  0  0  0
   -8.8016    7.4808   -8.5481 H   0  0  0  0  0  0  0  0  0  0  0  0
  -10.8902    6.4242  -12.7241 H   0  0  0  0  0  0  0  0  0  0  0  0
  -11.0405    4.7238  -13.2417 H   0  0  0  0  0  0  0  0  0  0  0  0
   -8.3418    7.4472  -13.4142 H   0  0  0  0  0  0  0  0  0  0  0  0
   -7.0810    6.4868  -12.6339 H   0  0  0  0  0  0  0  0  0  0  0  0
  -11.2815    5.7425  -15.3586 H   0  0  0  0  0  0  0  0  0  0  0  0
  -10.3475    7.1871  -14.9031 H   0  0  0  0  0  0  0  0  0  0  0  0
   -7.3803    5.1425  -14.4960 H   0  0  0  0  0  0  0  0  0  0  0  0
   -8.4995    3.7549  -14.3803 H   0  0  0  0  0  0  0  0  0  0  0  0
   -7.7442    7.8849  -10.8628 H   0  0  0  0  0  0  0  0  0  0  0  0
   -8.6809    6.6019  -18.9738 H   0  0  0  0  0  0  0  0  0  0  0  0
   -7.2142    7.4779  -18.4805 H   0  0  0  0  0  0  0  0  0  0  0  0
   -7.2623    6.5684  -20.0064 H   0  0  0  0  0  0  0  0  0  0  0  0
   -5.2083    4.3680  -17.7066 H   0  0  0  0  0  0  0  0  0  0  0  0
   -5.1570    6.1217  -17.6722 H   0  0  0  0  0  0  0  0  0  0  0  0
   -5.1504    5.2742  -19.2347 H   0  0  0  0  0  0  0  0  0  0  0  0
   -7.3066    3.1511  -18.3749 H   0  0  0  0  0  0  0  0  0  0  0  0
   -8.7548    4.0488  -18.8792 H   0  0  0  0  0  0  0  0  0  0  0  0
   -7.3228    3.9642  -19.9302 H   0  0  0  0  0  0  0  0  0  0  0  0
   -9.9612    8.4963  -10.4864 H   0  0  0  0  0  0  0  0  0  0  0  0
   -9.5120    8.8812  -12.0085 H   0  0  0  0  0  0  0  0  0  0  0  0
   -9.6010    1.1026   -7.3440 H   0  0  0  0  0  0  0  0  0  0  0  0
  1  3  1  0  0  0  0
  1  5  2  0  0  0  0
  2  4  2  0  0  0  0
  2  6  1  0  0  0  0
  3  6  2  0  0  0  0
  3  7  1  0  0  0  0
  4  5  1  0  0  0  0
  4 13  1  0  0  0  0
  5 23  1  0  0  0  0
  6 26  1  0  0  0  0
  7 21  2  0  0  0  0
  7 24  1  0  0  0  0
  8 19  1  0  0  0  0
  8 22  2  0  0  0  0
  8 25  1  0  0  0  0
  9 11  1  0  0  0  0
  9 14  1  0  0  0  0
 10 13  1  0  0  0  0
 10 14  1  0  0  0  0
 11 19  1  0  0  0  0
 12 14  1  0  0  0  0
 12 19  1  0  0  0  0
 13 20  1  0  0  0  0
 14 23  1  0  0  0  0
 15 18  1  0  0  0  0
 16 18  1  0  0  0  0
 17 18  1  0  0  0  0
 18 25  1  0  0  0  0
  1 27  1  0  0  0  0
  2 28  1  0  0  0  0
  9 29  1  0  0  0  0
  9 30  1  0  0  0  0
 10 31  1  0  0  0  0
 10 32  1  0  0  0  0
 11 33  1  0  0  0  0
 11 34  1  0  0  0  0
 12 35  1  0  0  0  0
 12 36  1  0  0  0  0
 13 37  1  0  0  0  0
 15 38  1  0  0  0  0
 15 39  1  0  0  0  0
 15 40  1  0  0  0  0
 16 41  1  0  0  0  0
 16 42  1  0  0  0  0
 16 43  1  0  0  0  0
 17 44  1  0  0  0  0
 17 45  1  0  0  0  0
 17 46  1  0  0  0  0
 20 47  1  0  0  0  0
 20 48  1  0  0  0  0
 24 49  1  0  0  0  0
M  END
> <id>
EN300-1129092

> <smiles>
CC(C)(C)OC(=O)N1CCC2(C1)CC(N)C=3C=C(F)C(=CC3O2)C(=O)O

> <IUPAC Name>
4-amino-1'-[(tert-butoxy)carbonyl]-6-fluoro-3,4-dihydrospiro[1-benzopyran-2,3'-pyrrolidine]-7-carboxylic acid

> <CAS>
2138012-27-6

> <URL>
https://www.enaminestore.com/catalog/EN300-1129092

> <ROCS_ShapeQuery>
_x0404_0B

> <ROCS_TanimotoCombo>
0.438 

> <ROCS_ShapeTanimoto>
0.395 

> <ROCS_ColorTanimoto>
0.043 

> <ROCS_RefTversky>
0.346 

> <ROCS_RefColorTversky>
0.049 

> <ROCS_RefTverskyCombo>
0.395 

> <ROCS_FitTversky>
1.564 

> <ROCS_FitColorTversky>
0.251 

> <ROCS_FitTverskyCombo>
1.815 

> <ROCS_ColorScore>
-3.572

> <ROCS_Overlap>
2310.713

> <ROCS_Rank>
253                 

$$$$
untitled-dbase-92169_1524
  -OEChem-08222312023D

 53 55  0     1  0  0  0  0  0999 V2000
   -8.3498    4.4148  -18.5012 C   0  0  0  0  0  0  0  0  0  0  0  0
   -9.6781    4.1321  -18.2862 C   0  0  0  0  0  0  0  0  0  0  0  0
   -8.9876    5.0262  -16.4822 C   0  0  0  0  0  0  0  0  0  0  0  0
   -9.2622    3.5997   -9.1423 C   0  0  0  0  0  0  0  0  0  0  0  0
   -8.6161    6.8409  -10.7146 C   0  0  0  0  0  0  0  0  0  0  0  0
  -10.1876    6.2302  -14.5454 C   0  0  0  0  0  0  0  0  0  0  0  0
   -8.1370    6.3107  -12.0704 C   0  0  0  0  0  0  0  0  0  0  0  0
  -10.3914    5.7111  -13.1162 C   0  0  0  0  0  0  0  0  0  0  0  0
   -8.4668    4.6156  -13.9680 C   0  0  0  0  0  0  0  0  0  0  0  0
   -9.5667    5.9116   -9.9694 C   0  0  0  0  0  0  0  0  0  0  0  0
   -9.1317    4.0606  -11.5999 C   0  0  0  0  0  0  0  0  0  0  0  0
   -8.8794    5.6025  -15.0796 C   0  0  1  0  0  0  0  0  0  0  0  0
   -9.0250    5.1909  -12.6456 C   0  0  1  0  0  0  0  0  0  0  0  0
   -8.1497    2.7162   -6.6585 C   0  0  0  0  0  0  0  0  0  0  0  0
   -9.8439    4.2212   -5.5752 C   0  0  0  0  0  0  0  0  0  0  0  0
  -10.6083    2.2840   -6.9790 C   0  0  0  0  0  0  0  0  0  0  0  0
   -6.5826    5.4611  -17.0756 C   0  0  0  0  0  0  0  0  0  0  0  0
   -9.5324    3.3527   -6.7920 C   0  0  0  0  0  0  0  0  0  0  0  0
  -10.0690    4.5154  -17.0277 N   0  0  0  0  0  0  0  0  0  0  0  0
   -7.9212    4.9877  -17.3370 N   0  0  0  0  0  0  0  0  0  0  0  0
   -9.2805    4.5052  -10.2108 N   0  0  0  0  0  0  0  0  0  0  0  0
   -9.0306    2.3973   -9.2520 O   0  0  0  0  0  0  0  0  0  0  0  0
   -7.8909    6.6394  -15.1477 O   0  0  0  0  0  0  0  0  0  0  0  0
   -9.5322    4.2057   -7.9423 O   0  0  0  0  0  0  0  0  0  0  0  0
  -10.8423    3.3272  -19.5257 Br  0  0  0  0  0  0  0  0  0  0  0  0
   -7.6939    4.2650  -19.3481 H   0  0  0  0  0  0  0  0  0  0  0  0
   -7.7388    7.0574  -10.0700 H   0  0  0  0  0  0  0  0  0  0  0  0
   -9.1087    7.8234  -10.8648 H   0  0  0  0  0  0  0  0  0  0  0  0
  -11.0545    5.9417  -15.1726 H   0  0  0  0  0  0  0  0  0  0  0  0
  -10.1486    7.3365  -14.5498 H   0  0  0  0  0  0  0  0  0  0  0  0
   -8.1066    7.1525  -12.7824 H   0  0  0  0  0  0  0  0  0  0  0  0
   -7.0956    5.9637  -11.9721 H   0  0  0  0  0  0  0  0  0  0  0  0
  -10.7419    6.5406  -12.4768 H   0  0  0  0  0  0  0  0  0  0  0  0
  -11.1820    4.9427  -13.0831 H   0  0  0  0  0  0  0  0  0  0  0  0
   -8.8704    3.6162  -14.1603 H   0  0  0  0  0  0  0  0  0  0  0  0
   -7.3762    4.5217  -13.9376 H   0  0  0  0  0  0  0  0  0  0  0  0
   -9.5345    6.1376   -8.8903 H   0  0  0  0  0  0  0  0  0  0  0  0
  -10.6070    6.0924  -10.2921 H   0  0  0  0  0  0  0  0  0  0  0  0
  -10.0204    3.4237  -11.8137 H   0  0  0  0  0  0  0  0  0  0  0  0
   -8.2678    3.3659  -11.6934 H   0  0  0  0  0  0  0  0  0  0  0  0
   -7.9223    2.0919   -7.5300 H   0  0  0  0  0  0  0  0  0  0  0  0
   -7.3650    3.4733   -6.5588 H   0  0  0  0  0  0  0  0  0  0  0  0
   -8.1060    2.0555   -5.7851 H   0  0  0  0  0  0  0  0  0  0  0  0
  -10.8351    4.6799   -5.6667 H   0  0  0  0  0  0  0  0  0  0  0  0
   -9.1282    5.0471   -5.4916 H   0  0  0  0  0  0  0  0  0  0  0  0
   -9.8146    3.6416   -4.6469 H   0  0  0  0  0  0  0  0  0  0  0  0
  -11.6002    2.7402   -7.0748 H   0  0  0  0  0  0  0  0  0  0  0  0
  -10.4210    1.6744   -7.8689 H   0  0  0  0  0  0  0  0  0  0  0  0
  -10.6555    1.6218   -6.1070 H   0  0  0  0  0  0  0  0  0  0  0  0
   -6.5302    6.5096  -17.3802 H   0  0  0  0  0  0  0  0  0  0  0  0
   -6.3629    5.3614  -16.0090 H   0  0  0  0  0  0  0  0  0  0  0  0
   -5.8689    4.8600  -17.6459 H   0  0  0  0  0  0  0  0  0  0  0  0
   -8.2133    7.2924  -15.7899 H   0  0  0  0  0  0  0  0  0  0  0  0
  1  2  2  0  0  0  0
  1 20  1  0  0  0  0
  2 19  1  0  0  0  0
  2 25  1  0  0  0  0
  3 12  1  0  0  0  0
  3 19  2  0  0  0  0
  3 20  1  0  0  0  0
  4 21  1  0  0  0  0
  4 22  2  0  0  0  0
  4 24  1  0  0  0  0
  5  7  1  0  0  0  0
  5 10  1  0  0  0  0
  6  8  1  0  0  0  0
  6 12  1  0  0  0  0
  7 13  1  0  0  0  0
  8 13  1  0  0  0  0
  9 12  1  0  0  0  0
  9 13  1  0  0  0  0
 10 21  1  0  0  0  0
 11 13  1  0  0  0  0
 11 21  1  0  0  0  0
 12 23  1  0  0  0  0
 14 18  1  0  0  0  0
 15 18  1  0  0  0  0
 16 18  1  0  0  0  0
 17 20  1  0  0  0  0
 18 24  1  0  0  0  0
  1 26  1  0  0  0  0
  5 27  1  0  0  0  0
  5 28  1  0  0  0  0
  6 29  1  0  0  0  0
  6 30  1  0  0  0  0
  7 31  1  0  0  0  0
  7 32  1  0  0  0  0
  8 33  1  0  0  0  0
  8 34  1  0  0  0  0
  9 35  1  0  0  0  0
  9 36  1  0  0  0  0
 10 37  1  0  0  0  0
 10 38  1  0  0  0  0
 11 39  1  0  0  0  0
 11 40  1  0  0  0  0
 14 41  1  0  0  0  0
 14 42  1  0  0  0  0
 14 43  1  0  0  0  0
 15 44  1  0  0  0  0
 15 45  1  0  0  0  0
 15 46  1  0  0  0  0
 16 47  1  0  0  0  0
 16 48  1  0  0  0  0
 16 49  1  0  0  0  0
 17 50  1  0  0  0  0
 17 51  1  0  0  0  0
 17 52  1  0  0  0  0
 23 53  1  0  0  0  0
M  END
> <id>
EN300-7428859

> <smiles>
CN1C=C(Br)N=C1C2(O)CCC3(C2)CCCN(C3)C(=O)OC(C)(C)C

> <IUPAC Name>
tert-butyl 2-(4-bromo-1-methyl-1H-imidazol-2-yl)-2-hydroxy-7-azaspiro[4.5]decane-7-carboxylate

> <CAS>
2309465-06-1

> <URL>
https://www.enaminestore.com/catalog/EN300-7428859

> <ROCS_ShapeQuery>
_x0404_0B

> <ROCS_TanimotoCombo>
0.438 

> <ROCS_ShapeTanimoto>
0.381 

> <ROCS_ColorTanimoto>
0.057 

> <ROCS_RefTversky>
0.334 

> <ROCS_RefColorTversky>
0.064 

> <ROCS_RefTverskyCombo>
0.398 

> <ROCS_FitTversky>
1.588 

> <ROCS_FitColorTversky>
0.348 

> <ROCS_FitTverskyCombo>
1.936 

> <ROCS_ColorScore>
-4.615

> <ROCS_Overlap>
2230.243

> <ROCS_Rank>
254                 

$$$$
untitled-dbase-106547_61
  -OEChem-08222312023D

 43 45  0     1  0  0  0  0  0999 V2000
   -9.1606    6.7755  -13.6748 C   0  0  0  0  0  0  0  0  0  0  0  0
   -9.0191    6.2946  -12.4074 C   0  0  0  0  0  0  0  0  0  0  0  0
   -8.5942    4.9771  -12.5581 C   0  0  0  0  0  0  0  0  0  0  0  0
   -8.3898    4.5571  -18.6562 C   0  0  0  0  0  0  0  0  0  0  0  0
   -9.8087    4.7478  -16.5953 C   0  0  0  0  0  0  0  0  0  0  0  0
   -8.7030    5.2139   -8.9609 C   0  0  0  0  0  0  0  0  0  0  0  0
   -9.1560    6.6745  -11.0016 C   0  0  0  0  0  0  0  0  0  0  0  0
   -8.3885    4.2955  -11.2798 C   0  0  0  0  0  0  0  0  0  0  0  0
   -7.4108    5.5413  -18.0658 C   0  0  0  0  0  0  0  0  0  0  0  0
   -7.3952    5.4595  -16.5495 C   0  0  0  0  0  0  0  0  0  0  0  0
   -8.8010    5.7273  -16.0056 C   0  0  2  0  0  0  0  0  0  0  0  0
  -10.6461    3.6213   -8.2198 C   0  0  0  0  0  0  0  0  0  0  0  0
   -9.0166    1.7098   -8.2131 C   0  0  0  0  0  0  0  0  0  0  0  0
   -8.9492    3.4171   -6.3723 C   0  0  0  0  0  0  0  0  0  0  0  0
   -9.2297    3.1791   -7.8553 C   0  0  0  0  0  0  0  0  0  0  0  0
   -8.4573    4.5912  -13.8189 N   0  0  0  0  0  0  0  0  0  0  0  0
   -8.8130    5.7193  -14.4879 N   0  0  0  0  0  0  0  0  0  0  0  0
   -9.4951    4.2640  -17.8642 N   0  0  0  0  0  0  0  0  0  0  0  0
   -8.7501    5.3950  -10.3360 N   0  0  0  0  0  0  0  0  0  0  0  0
   -8.2351    4.0963  -19.7868 O   0  0  0  0  0  0  0  0  0  0  0  0
  -10.8551    4.4464  -16.0205 O   0  0  0  0  0  0  0  0  0  0  0  0
   -8.9890    6.0832   -8.1407 O   0  0  0  0  0  0  0  0  0  0  0  0
   -8.2996    3.9497   -8.6246 O   0  0  0  0  0  0  0  0  0  0  0  0
   -9.4653    7.7325  -14.0748 H   0  0  0  0  0  0  0  0  0  0  0  0
   -8.4692    7.4669  -10.6928 H   0  0  0  0  0  0  0  0  0  0  0  0
  -10.1819    6.9142  -10.7103 H   0  0  0  0  0  0  0  0  0  0  0  0
   -9.0649    3.4528  -11.1155 H   0  0  0  0  0  0  0  0  0  0  0  0
   -7.3513    4.0020  -11.0987 H   0  0  0  0  0  0  0  0  0  0  0  0
   -6.4127    5.3147  -18.4558 H   0  0  0  0  0  0  0  0  0  0  0  0
   -7.6911    6.5460  -18.4012 H   0  0  0  0  0  0  0  0  0  0  0  0
   -7.0501    4.4657  -16.2337 H   0  0  0  0  0  0  0  0  0  0  0  0
   -6.6836    6.1894  -16.1455 H   0  0  0  0  0  0  0  0  0  0  0  0
   -9.1285    6.7530  -16.2666 H   0  0  0  0  0  0  0  0  0  0  0  0
  -10.8031    4.6754   -7.9645 H   0  0  0  0  0  0  0  0  0  0  0  0
  -10.8480    3.4883   -9.2876 H   0  0  0  0  0  0  0  0  0  0  0  0
  -11.3916    3.0517   -7.6531 H   0  0  0  0  0  0  0  0  0  0  0  0
   -8.0015    1.3882   -7.9533 H   0  0  0  0  0  0  0  0  0  0  0  0
   -9.1238    1.5514   -9.2923 H   0  0  0  0  0  0  0  0  0  0  0  0
   -9.7293    1.0603   -7.6948 H   0  0  0  0  0  0  0  0  0  0  0  0
   -7.9332    3.1000   -6.1106 H   0  0  0  0  0  0  0  0  0  0  0  0
   -9.0613    4.4729   -6.1050 H   0  0  0  0  0  0  0  0  0  0  0  0
   -9.6283    2.8257   -5.7475 H   0  0  0  0  0  0  0  0  0  0  0  0
  -10.1672    3.6167  -18.2674 H   0  0  0  0  0  0  0  0  0  0  0  0
  1  2  2  0  0  0  0
  1 17  1  0  0  0  0
  2  3  1  0  0  0  0
  2  7  1  0  0  0  0
  3  8  1  0  0  0  0
  3 16  2  0  0  0  0
  4  9  1  0  0  0  0
  4 18  1  0  0  0  0
  4 20  2  0  0  0  0
  5 11  1  0  0  0  0
  5 18  1  0  0  0  0
  5 21  2  0  0  0  0
  6 19  1  0  0  0  0
  6 22  2  0  0  0  0
  6 23  1  0  0  0  0
  7 19  1  0  0  0  0
  8 19  1  0  0  0  0
  9 10  1  0  0  0  0
 10 11  1  0  0  0  0
 11 17  1  0  0  0  0
 12 15  1  0  0  0  0
 13 15  1  0  0  0  0
 14 15  1  0  0  0  0
 15 23  1  0  0  0  0
 16 17  1  0  0  0  0
  1 24  1  0  0  0  0
  7 25  1  0  0  0  0
  7 26  1  0  0  0  0
  8 27  1  0  0  0  0
  8 28  1  0  0  0  0
  9 29  1  0  0  0  0
  9 30  1  0  0  0  0
 10 31  1  0  0  0  0
 10 32  1  0  0  0  0
 11 33  1  0  0  0  0
 12 34  1  0  0  0  0
 12 35  1  0  0  0  0
 12 36  1  0  0  0  0
 13 37  1  0  0  0  0
 13 38  1  0  0  0  0
 13 39  1  0  0  0  0
 14 40  1  0  0  0  0
 14 41  1  0  0  0  0
 14 42  1  0  0  0  0
 18 43  1  0  0  0  0
M  END
> <id>
EN300-26682856

> <smiles>
CC(C)(C)OC(=O)N1CC2=CN(N=C2C1)C3CCC(=O)NC3=O

> <IUPAC Name>
tert-butyl 2-(2,6-dioxopiperidin-3-yl)-2H,4H,5H,6H-pyrrolo[3,4-c]pyrazole-5-carboxylate

> <CAS>
2154341-78-1

> <URL>
https://www.enaminestore.com/catalog/EN300-26682856

> <ROCS_ShapeQuery>
_x0404_0B

> <ROCS_TanimotoCombo>
0.438 

> <ROCS_ShapeTanimoto>
0.386 

> <ROCS_ColorTanimoto>
0.052 

> <ROCS_RefTversky>
0.335 

> <ROCS_RefColorTversky>
0.058 

> <ROCS_RefTverskyCombo>
0.393 

> <ROCS_FitTversky>
1.655 

> <ROCS_FitColorTversky>
0.340 

> <ROCS_FitTverskyCombo>
1.995 

> <ROCS_ColorScore>
-4.206

> <ROCS_Overlap>
2234.079

> <ROCS_Rank>
255                 

$$$$
untitled-dbase-6246_3
  -OEChem-08222312023D

 28 30  0     0  0  0  0  0  0999 V2000
   -8.9636    5.7095   -9.0502 C   0  0  0  0  0  0  0  0  0  0  0  0
   -9.5108    5.2045  -15.5577 C   0  0  0  0  0  0  0  0  0  0  0  0
   -9.1119    4.4846   -8.3951 C   0  0  0  0  0  0  0  0  0  0  0  0
   -9.4563    4.5394  -16.7825 C   0  0  0  0  0  0  0  0  0  0  0  0
   -7.2749    6.0469  -15.9154 C   0  0  0  0  0  0  0  0  0  0  0  0
   -9.0222    3.2652  -10.5123 C   0  0  0  0  0  0  0  0  0  0  0  0
   -8.8483    5.6723  -10.4235 C   0  0  0  0  0  0  0  0  0  0  0  0
   -8.4202    5.9583  -15.1241 C   0  0  0  0  0  0  0  0  0  0  0  0
   -8.8762    4.4807  -11.1456 C   0  0  0  0  0  0  0  0  0  0  0  0
   -9.1408    3.2747   -9.1186 C   0  0  0  0  0  0  0  0  0  0  0  0
   -8.3110    4.6280  -17.5738 C   0  0  0  0  0  0  0  0  0  0  0  0
   -7.2203    5.3818  -17.1403 C   0  0  0  0  0  0  0  0  0  0  0  0
   -8.6832    6.7566  -11.3832 C   0  0  0  0  0  0  0  0  0  0  0  0
   -8.6248    6.0429  -12.6815 C   0  0  0  0  0  0  0  0  0  0  0  0
   -8.4775    6.6419  -13.8640 C   0  0  0  0  0  0  0  0  0  0  0  0
   -8.6126    7.9434  -11.1592 O   0  0  0  0  0  0  0  0  0  0  0  0
   -8.7447    4.6699  -12.5021 O   0  0  0  0  0  0  0  0  0  0  0  0
   -9.2865    2.0973   -8.4467 O   0  0  0  0  0  0  0  0  0  0  0  0
   -8.3038    3.7803  -19.0803 Cl  0  0  0  0  0  0  0  0  0  0  0  0
   -5.7736    5.5288  -18.0755 Cl  0  0  0  0  0  0  0  0  0  0  0  0
   -8.9410    6.6405   -8.4967 H   0  0  0  0  0  0  0  0  0  0  0  0
  -10.4107    5.1257  -14.9521 H   0  0  0  0  0  0  0  0  0  0  0  0
   -9.2048    4.4679   -7.3117 H   0  0  0  0  0  0  0  0  0  0  0  0
  -10.3156    3.9564  -17.1047 H   0  0  0  0  0  0  0  0  0  0  0  0
   -6.4254    6.6363  -15.5755 H   0  0  0  0  0  0  0  0  0  0  0  0
   -9.0445    2.3369  -11.0720 H   0  0  0  0  0  0  0  0  0  0  0  0
   -8.3662    7.7265  -13.8709 H   0  0  0  0  0  0  0  0  0  0  0  0
   -9.3556    2.2628   -7.4938 H   0  0  0  0  0  0  0  0  0  0  0  0
  1  3  1  0  0  0  0
  1  7  2  0  0  0  0
  2  4  1  0  0  0  0
  2  8  2  0  0  0  0
  3 10  2  0  0  0  0
  4 11  2  0  0  0  0
  5  8  1  0  0  0  0
  5 12  2  0  0  0  0
  6  9  2  0  0  0  0
  6 10  1  0  0  0  0
  7  9  1  0  0  0  0
  7 13  1  0  0  0  0
  8 15  1  0  0  0  0
  9 17  1  0  0  0  0
 10 18  1  0  0  0  0
 11 12  1  0  0  0  0
 11 19  1  0  0  0  0
 12 20  1  0  0  0  0
 13 14  1  0  0  0  0
 13 16  2  0  0  0  0
 14 15  2  3  0  0  0
 14 17  1  0  0  0  0
  1 21  1  0  0  0  0
  2 22  1  0  0  0  0
  3 23  1  0  0  0  0
  4 24  1  0  0  0  0
  5 25  1  0  0  0  0
  6 26  1  0  0  0  0
 15 27  1  0  0  0  0
 18 28  1  0  0  0  0
M  END
> <id>
EN300-36367

> <smiles>
OC=1C=CC=2C(=O)C(=CC=3C=CC(Cl)=C(Cl)C3)OC2C1

> <IUPAC Name>
2-[(3,4-dichlorophenyl)methylidene]-6-hydroxy-2,3-dihydro-1-benzofuran-3-one

> <CAS>
620545-98-4

> <URL>
https://www.enaminestore.com/catalog/EN300-36367

> <ROCS_ShapeQuery>
_x0404_0B

> <ROCS_TanimotoCombo>
0.438 

> <ROCS_ShapeTanimoto>
0.363 

> <ROCS_ColorTanimoto>
0.075 

> <ROCS_RefTversky>
0.315 

> <ROCS_RefColorTversky>
0.080 

> <ROCS_RefTverskyCombo>
0.395 

> <ROCS_FitTversky>
1.731 

> <ROCS_FitColorTversky>
0.552 

> <ROCS_FitTverskyCombo>
2.283 

> <ROCS_ColorScore>
-5.768

> <ROCS_Overlap>
2098.554

> <ROCS_Rank>
256                 

$$$$
untitled-dbase-55894_302
  -OEChem-08222312023D

 56 58  0     0  0  0  0  0  0999 V2000
   -8.5051    5.8369  -15.6698 B   0  0  0  0  0  0  0  0  0  0  0  0
   -9.1799    8.8408  -13.4637 C   0  0  0  0  0  0  0  0  0  0  0  0
   -8.9562    7.9958  -14.5477 C   0  0  0  0  0  0  0  0  0  0  0  0
   -9.1746    8.3279  -12.1667 C   0  0  0  0  0  0  0  0  0  0  0  0
   -8.7325    6.6356  -14.3370 C   0  0  0  0  0  0  0  0  0  0  0  0
   -8.9466    6.9626  -11.9410 C   0  0  0  0  0  0  0  0  0  0  0  0
   -8.7393    6.1081  -13.0386 C   0  0  0  0  0  0  0  0  0  0  0  0
   -8.0849    4.4517   -9.2441 C   0  0  0  0  0  0  0  0  0  0  0  0
   -8.4690    4.6423  -12.8221 C   0  0  0  0  0  0  0  0  0  0  0  0
   -8.9440    6.4435  -10.5240 C   0  0  0  0  0  0  0  0  0  0  0  0
   -9.0617    4.1579  -11.5047 C   0  0  0  0  0  0  0  0  0  0  0  0
   -7.4758    5.0489  -17.5578 C   0  0  0  0  0  0  0  0  0  0  0  0
   -8.9103    4.4347  -17.4346 C   0  0  0  0  0  0  0  0  0  0  0  0
   -6.3230    4.0836  -17.2008 C   0  0  0  0  0  0  0  0  0  0  0  0
   -7.1612    5.6731  -18.9245 C   0  0  0  0  0  0  0  0  0  0  0  0
   -8.9674    2.9069  -17.5744 C   0  0  0  0  0  0  0  0  0  0  0  0
   -9.9600    5.0380  -18.3949 C   0  0  0  0  0  0  0  0  0  0  0  0
   -9.9705    4.0739   -7.4592 C   0  0  0  0  0  0  0  0  0  0  0  0
  -10.1035    1.6699   -8.1750 C   0  0  0  0  0  0  0  0  0  0  0  0
   -8.1621    2.4567   -6.7894 C   0  0  0  0  0  0  0  0  0  0  0  0
   -9.1698    2.8398   -7.8722 C   0  0  0  0  0  0  0  0  0  0  0  0
   -8.6282    5.0146  -10.4040 N   0  0  0  0  0  0  0  0  0  0  0  0
   -7.3522    5.0501   -8.4588 O   0  0  0  0  0  0  0  0  0  0  0  0
   -7.4655    6.1171  -16.5566 O   0  0  0  0  0  0  0  0  0  0  0  0
   -9.3242    4.7828  -16.0741 O   0  0  0  0  0  0  0  0  0  0  0  0
   -8.4536    3.1427   -9.0750 O   0  0  0  0  0  0  0  0  0  0  0  0
   -9.3632    9.8989  -13.6270 H   0  0  0  0  0  0  0  0  0  0  0  0
   -8.9679    8.4371  -15.5434 H   0  0  0  0  0  0  0  0  0  0  0  0
   -9.3542    8.9983  -11.3296 H   0  0  0  0  0  0  0  0  0  0  0  0
   -8.8990    4.0720  -13.6551 H   0  0  0  0  0  0  0  0  0  0  0  0
   -7.3942    4.4335  -12.7852 H   0  0  0  0  0  0  0  0  0  0  0  0
   -8.1829    6.9798   -9.9448 H   0  0  0  0  0  0  0  0  0  0  0  0
   -9.9213    6.6377  -10.0694 H   0  0  0  0  0  0  0  0  0  0  0  0
  -10.1540    4.1345  -11.5738 H   0  0  0  0  0  0  0  0  0  0  0  0
   -8.7254    3.1392  -11.2741 H   0  0  0  0  0  0  0  0  0  0  0  0
   -5.3806    4.6037  -17.3182 H   0  0  0  0  0  0  0  0  0  0  0  0
   -6.3608    3.2304  -17.8664 H   0  0  0  0  0  0  0  0  0  0  0  0
   -6.4420    3.7590  -16.1747 H   0  0  0  0  0  0  0  0  0  0  0  0
   -6.1506    6.0709  -18.9159 H   0  0  0  0  0  0  0  0  0  0  0  0
   -7.8652    6.4752  -19.1258 H   0  0  0  0  0  0  0  0  0  0  0  0
   -7.2457    4.9136  -19.6964 H   0  0  0  0  0  0  0  0  0  0  0  0
   -9.9963    2.5734  -17.4758 H   0  0  0  0  0  0  0  0  0  0  0  0
   -8.3619    2.4503  -16.7969 H   0  0  0  0  0  0  0  0  0  0  0  0
   -8.5843    2.6188  -18.5490 H   0  0  0  0  0  0  0  0  0  0  0  0
  -10.9106    4.5468  -18.2292 H   0  0  0  0  0  0  0  0  0  0  0  0
   -9.6340    4.8800  -19.4152 H   0  0  0  0  0  0  0  0  0  0  0  0
  -10.0506    6.0982  -18.1944 H   0  0  0  0  0  0  0  0  0  0  0  0
   -9.3039    4.9159   -7.2411 H   0  0  0  0  0  0  0  0  0  0  0  0
  -10.6724    4.3799   -8.2419 H   0  0  0  0  0  0  0  0  0  0  0  0
  -10.5378    3.8828   -6.5411 H   0  0  0  0  0  0  0  0  0  0  0  0
   -9.5332    0.7823   -8.4717 H   0  0  0  0  0  0  0  0  0  0  0  0
  -10.7658    1.9066   -9.0156 H   0  0  0  0  0  0  0  0  0  0  0  0
  -10.7214    1.4115   -7.3089 H   0  0  0  0  0  0  0  0  0  0  0  0
   -7.5876    1.5715   -7.0854 H   0  0  0  0  0  0  0  0  0  0  0  0
   -7.4602    3.2718   -6.5850 H   0  0  0  0  0  0  0  0  0  0  0  0
   -8.6736    2.1954   -5.8559 H   0  0  0  0  0  0  0  0  0  0  0  0
  1  5  1  0  0  0  0
  1 24  1  0  0  0  0
  1 25  1  0  0  0  0
  2  3  2  0  0  0  0
  2  4  1  0  0  0  0
  3  5  1  0  0  0  0
  4  6  2  0  0  0  0
  5  7  2  0  0  0  0
  6  7  1  0  0  0  0
  6 10  1  0  0  0  0
  7  9  1  0  0  0  0
  8 22  1  0  0  0  0
  8 23  2  0  0  0  0
  8 26  1  0  0  0  0
  9 11  1  0  0  0  0
 10 22  1  0  0  0  0
 11 22  1  0  0  0  0
 12 13  1  0  0  0  0
 12 14  1  0  0  0  0
 12 15  1  0  0  0  0
 12 24  1  0  0  0  0
 13 16  1  0  0  0  0
 13 17  1  0  0  0  0
 13 25  1  0  0  0  0
 18 21  1  0  0  0  0
 19 21  1  0  0  0  0
 20 21  1  0  0  0  0
 21 26  1  0  0  0  0
  2 27  1  0  0  0  0
  3 28  1  0  0  0  0
  4 29  1  0  0  0  0
  9 30  1  0  0  0  0
  9 31  1  0  0  0  0
 10 32  1  0  0  0  0
 10 33  1  0  0  0  0
 11 34  1  0  0  0  0
 11 35  1  0  0  0  0
 14 36  1  0  0  0  0
 14 37  1  0  0  0  0
 14 38  1  0  0  0  0
 15 39  1  0  0  0  0
 15 40  1  0  0  0  0
 15 41  1  0  0  0  0
 16 42  1  0  0  0  0
 16 43  1  0  0  0  0
 16 44  1  0  0  0  0
 17 45  1  0  0  0  0
 17 46  1  0  0  0  0
 17 47  1  0  0  0  0
 18 48  1  0  0  0  0
 18 49  1  0  0  0  0
 18 50  1  0  0  0  0
 19 51  1  0  0  0  0
 19 52  1  0  0  0  0
 19 53  1  0  0  0  0
 20 54  1  0  0  0  0
 20 55  1  0  0  0  0
 20 56  1  0  0  0  0
M  END
> <id>
EN300-6253671

> <smiles>
CC(C)(C)OC(=O)N1CCC=2C(=CC=CC2C1)B3OC(C)(C)C(C)(C)O3

> <MDLNUMBER>
MFCD11044677

> <IUPAC Name>
tert-butyl 5-(tetramethyl-1,3,2-dioxaborolan-2-yl)-1,2,3,4-tetrahydroisoquinoline-2-carboxylate

> <CAS>
1035235-26-7

> <Purity>
95

> <URL>
https://www.enaminestore.com/catalog/EN300-6253671

> <ROCS_ShapeQuery>
_x0404_0B

> <ROCS_TanimotoCombo>
0.438 

> <ROCS_ShapeTanimoto>
0.402 

> <ROCS_ColorTanimoto>
0.036 

> <ROCS_RefTversky>
0.349 

> <ROCS_RefColorTversky>
0.040 

> <ROCS_RefTverskyCombo>
0.389 

> <ROCS_FitTversky>
1.605 

> <ROCS_FitColorTversky>
0.276 

> <ROCS_FitTverskyCombo>
1.882 

> <ROCS_ColorScore>
-2.885

> <ROCS_Overlap>
2331.332

> <ROCS_Rank>
257                 

$$$$
untitled-dbase-156877_153
  -OEChem-08222312023D

 60 63  0     1  0  0  0  0  0999 V2000
   -7.9623    5.4064  -15.9272 B   0  0  0  0  0  0  0  0  0  0  0  0
   -9.0332    3.1976  -10.3034 C   0  0  0  0  0  0  0  0  0  0  0  0
   -9.9748    6.6093  -11.0409 C   0  0  0  0  0  0  0  0  0  0  0  0
   -8.5995    6.7677  -10.3614 C   0  0  0  0  0  0  0  0  0  0  0  0
   -7.8114    7.0247  -13.7896 C   0  0  0  0  0  0  0  0  0  0  0  0
   -9.4162    5.1161  -13.0238 C   0  0  0  0  0  0  0  0  0  0  0  0
   -7.1064    5.3877  -11.8879 C   0  0  0  0  0  0  0  0  0  0  0  0
   -7.2731    5.7743  -14.4398 C   0  0  1  0  0  0  0  0  0  0  0  0
   -9.9807    5.1769  -11.5905 C   0  0  1  0  0  0  0  0  0  0  0  0
   -7.9007    5.4188  -10.5690 C   0  0  2  0  0  0  0  0  0  0  0  0
   -7.9929    5.6878  -13.1051 C   0  0  0  0  0  0  0  0  0  0  0  0
   -8.2662    5.3307  -18.1941 C   0  0  0  0  0  0  0  0  0  0  0  0
   -9.4175    4.5523  -17.4730 C   0  0  0  0  0  0  0  0  0  0  0  0
   -7.5747    4.5519  -19.3222 C   0  0  0  0  0  0  0  0  0  0  0  0
   -8.6678    6.7148  -18.7517 C   0  0  0  0  0  0  0  0  0  0  0  0
   -9.3095    3.0127  -17.5519 C   0  0  0  0  0  0  0  0  0  0  0  0
  -10.8334    4.9479  -17.9155 C   0  0  0  0  0  0  0  0  0  0  0  0
   -9.7722    1.1328   -8.4709 C   0  0  0  0  0  0  0  0  0  0  0  0
   -8.4591    2.4296   -6.7671 C   0  0  0  0  0  0  0  0  0  0  0  0
  -10.4771    3.4664   -7.8446 C   0  0  0  0  0  0  0  0  0  0  0  0
   -9.2943    2.5194   -8.0424 C   0  0  0  0  0  0  0  0  0  0  0  0
   -9.0196    4.5114  -10.7281 N   0  0  0  0  0  0  0  0  0  0  0  0
   -9.5106    2.2678  -10.9497 O   0  0  0  0  0  0  0  0  0  0  0  0
   -7.2838    5.5643  -17.1338 O   0  0  0  0  0  0  0  0  0  0  0  0
   -9.2610    4.9216  -16.0647 O   0  0  0  0  0  0  0  0  0  0  0  0
   -8.4530    3.0499   -9.0725 O   0  0  0  0  0  0  0  0  0  0  0  0
  -10.7629    6.7299  -10.2883 H   0  0  0  0  0  0  0  0  0  0  0  0
  -10.1376    7.3652  -11.8156 H   0  0  0  0  0  0  0  0  0  0  0  0
   -8.0357    7.6106  -10.7732 H   0  0  0  0  0  0  0  0  0  0  0  0
   -8.7465    6.9563   -9.2914 H   0  0  0  0  0  0  0  0  0  0  0  0
   -7.0914    7.7248  -13.3784 H   0  0  0  0  0  0  0  0  0  0  0  0
   -8.6909    7.5169  -14.1909 H   0  0  0  0  0  0  0  0  0  0  0  0
   -9.3952    4.0695  -13.3540 H   0  0  0  0  0  0  0  0  0  0  0  0
  -10.0957    5.6545  -13.6953 H   0  0  0  0  0  0  0  0  0  0  0  0
   -6.2743    6.1000  -11.8298 H   0  0  0  0  0  0  0  0  0  0  0  0
   -6.6624    4.3926  -12.0205 H   0  0  0  0  0  0  0  0  0  0  0  0
   -6.2136    5.6153  -14.5092 H   0  0  0  0  0  0  0  0  0  0  0  0
  -10.9716    4.7159  -11.5452 H   0  0  0  0  0  0  0  0  0  0  0  0
   -7.2630    5.1369   -9.7257 H   0  0  0  0  0  0  0  0  0  0  0  0
   -6.7996    5.1728  -19.7536 H   0  0  0  0  0  0  0  0  0  0  0  0
   -8.3097    4.2993  -20.0761 H   0  0  0  0  0  0  0  0  0  0  0  0
   -7.1404    3.6493  -18.9106 H   0  0  0  0  0  0  0  0  0  0  0  0
   -7.8083    7.1745  -19.2308 H   0  0  0  0  0  0  0  0  0  0  0  0
   -9.0103    7.3466  -17.9374 H   0  0  0  0  0  0  0  0  0  0  0  0
   -9.4664    6.5937  -19.4779 H   0  0  0  0  0  0  0  0  0  0  0  0
  -10.1476    2.5645  -17.0261 H   0  0  0  0  0  0  0  0  0  0  0  0
   -8.3793    2.6920  -17.0921 H   0  0  0  0  0  0  0  0  0  0  0  0
   -9.3261    2.7024  -18.5926 H   0  0  0  0  0  0  0  0  0  0  0  0
  -11.5522    4.3568  -17.3620 H   0  0  0  0  0  0  0  0  0  0  0  0
  -10.9356    4.7575  -18.9765 H   0  0  0  0  0  0  0  0  0  0  0  0
  -10.9836    6.0007  -17.7116 H   0  0  0  0  0  0  0  0  0  0  0  0
  -10.3721    1.1930   -9.3861 H   0  0  0  0  0  0  0  0  0  0  0  0
   -8.9320    0.4540   -8.6499 H   0  0  0  0  0  0  0  0  0  0  0  0
  -10.4192    0.6885   -7.7059 H   0  0  0  0  0  0  0  0  0  0  0  0
   -8.1141    3.4223   -6.4560 H   0  0  0  0  0  0  0  0  0  0  0  0
   -7.5583    1.8275   -6.9320 H   0  0  0  0  0  0  0  0  0  0  0  0
   -9.0267    1.9858   -5.9428 H   0  0  0  0  0  0  0  0  0  0  0  0
  -10.1346    4.4611   -7.5372 H   0  0  0  0  0  0  0  0  0  0  0  0
  -11.0669    3.5719   -8.7609 H   0  0  0  0  0  0  0  0  0  0  0  0
  -11.1356    3.1057   -7.0461 H   0  0  0  0  0  0  0  0  0  0  0  0
  1  8  1  0  0  0  0
  1 24  1  0  0  0  0
  1 25  1  0  0  0  0
  2 22  1  0  0  0  0
  2 23  2  0  0  0  0
  2 26  1  0  0  0  0
  3  4  1  0  0  0  0
  3  9  1  0  0  0  0
  4 10  1  0  0  0  0
  5  8  1  0  0  0  0
  5 11  1  0  0  0  0
  6  9  1  0  0  0  0
  6 11  1  0  0  0  0
  7 10  1  0  0  0  0
  7 11  1  0  0  0  0
  8 11  1  0  0  0  0
  9 22  1  0  0  0  0
 10 22  1  0  0  0  0
 12 13  1  0  0  0  0
 12 14  1  0  0  0  0
 12 15  1  0  0  0  0
 12 24  1  0  0  0  0
 13 16  1  0  0  0  0
 13 17  1  0  0  0  0
 13 25  1  0  0  0  0
 18 21  1  0  0  0  0
 19 21  1  0  0  0  0
 20 21  1  0  0  0  0
 21 26  1  0  0  0  0
  3 27  1  0  0  0  0
  3 28  1  0  0  0  0
  4 29  1  0  0  0  0
  4 30  1  0  0  0  0
  5 31  1  0  0  0  0
  5 32  1  0  0  0  0
  6 33  1  0  0  0  0
  6 34  1  0  0  0  0
  7 35  1  0  0  0  0
  7 36  1  0  0  0  0
  8 37  1  0  0  0  0
  9 38  1  0  0  0  0
 10 39  1  0  0  0  0
 14 40  1  0  0  0  0
 14 41  1  0  0  0  0
 14 42  1  0  0  0  0
 15 43  1  0  0  0  0
 15 44  1  0  0  0  0
 15 45  1  0  0  0  0
 16 46  1  0  0  0  0
 16 47  1  0  0  0  0
 16 48  1  0  0  0  0
 17 49  1  0  0  0  0
 17 50  1  0  0  0  0
 17 51  1  0  0  0  0
 18 52  1  0  0  0  0
 18 53  1  0  0  0  0
 18 54  1  0  0  0  0
 19 55  1  0  0  0  0
 19 56  1  0  0  0  0
 19 57  1  0  0  0  0
 20 58  1  0  0  0  0
 20 59  1  0  0  0  0
 20 60  1  0  0  0  0
M  END
> <id>
EN300-27145437

> <smiles>
CC(C)(C)OC(=O)N1C2CCC1CC3(CC3B4OC(C)(C)C(C)(C)O4)C2

> <MDLNUMBER>
MFCD33021403

> <IUPAC Name>
tert-butyl 2'-(4,4,5,5-tetramethyl-1,3,2-dioxaborolan-2-yl)-8-azaspiro[bicyclo[3.2.1]octane-3,1'-cyclopropane]-8-carboxylate

> <Purity>
95

> <URL>
https://www.enaminestore.com/catalog/EN300-27145437

> <ROCS_ShapeQuery>
_x0404_0B

> <ROCS_TanimotoCombo>
0.438 

> <ROCS_ShapeTanimoto>
0.368 

> <ROCS_ColorTanimoto>
0.070 

> <ROCS_RefTversky>
0.327 

> <ROCS_RefColorTversky>
0.078 

> <ROCS_RefTverskyCombo>
0.405 

> <ROCS_FitTversky>
1.508 

> <ROCS_FitColorTversky>
0.401 

> <ROCS_FitTverskyCombo>
1.910 

> <ROCS_ColorScore>
-5.657

> <ROCS_Overlap>
2187.117

> <ROCS_Rank>
258                 

$$$$
untitled-dbase-157359_3252
  -OEChem-08222312023D

 58 60  0     1  0  0  0  0  0999 V2000
  -10.0548    7.9083  -14.1966 C   0  0  0  0  0  0  0  0  0  0  0  0
   -7.4227    4.9419  -17.0518 C   0  0  0  0  0  0  0  0  0  0  0  0
   -8.5677    5.1846   -9.0424 C   0  0  0  0  0  0  0  0  0  0  0  0
   -7.5931    5.1422  -14.5401 C   0  0  0  0  0  0  0  0  0  0  0  0
   -9.0854    6.4257  -15.9356 C   0  0  0  0  0  0  0  0  0  0  0  0
   -9.0354    6.4850  -11.1916 C   0  0  0  0  0  0  0  0  0  0  0  0
   -8.0359    4.6248  -11.5326 C   0  0  0  0  0  0  0  0  0  0  0  0
  -10.6041    5.4671  -14.1070 C   0  0  0  0  0  0  0  0  0  0  0  0
   -8.3281    6.1529  -13.6585 C   0  0  1  0  0  0  0  0  0  0  0  0
   -9.5622    6.5202  -14.4908 C   0  0  2  0  0  0  0  0  0  0  0  0
   -8.9293    5.5314  -12.4065 C   0  0  0  0  0  0  0  0  0  0  0  0
   -9.1250    3.3196  -18.2064 C   0  0  0  0  0  0  0  0  0  0  0  0
   -9.7773    5.1821  -19.7604 C   0  0  0  0  0  0  0  0  0  0  0  0
   -7.5779    4.0091  -20.0680 C   0  0  0  0  0  0  0  0  0  0  0  0
   -9.8305    2.5375   -8.9626 C   0  0  0  0  0  0  0  0  0  0  0  0
   -7.8770    1.8866   -7.5241 C   0  0  0  0  0  0  0  0  0  0  0  0
   -9.4930    3.6341   -6.7225 C   0  0  0  0  0  0  0  0  0  0  0  0
   -8.6167    4.4852  -19.0537 C   0  0  0  0  0  0  0  0  0  0  0  0
   -8.8029    3.0265   -7.9429 C   0  0  0  0  0  0  0  0  0  0  0  0
   -7.9879    5.4712  -15.9037 N   0  0  0  0  0  0  0  0  0  0  0  0
   -8.4751    5.4076  -10.3955 N   0  0  0  0  0  0  0  0  0  0  0  0
  -11.1887    8.1892  -13.8380 O   0  0  0  0  0  0  0  0  0  0  0  0
   -6.5085    4.1206  -17.0557 O   0  0  0  0  0  0  0  0  0  0  0  0
   -9.1855    5.9301   -8.2825 O   0  0  0  0  0  0  0  0  0  0  0  0
  -10.2011    4.9661  -12.8224 O   0  0  0  0  0  0  0  0  0  0  0  0
   -9.0669    8.8169  -14.3856 O   0  0  0  0  0  0  0  0  0  0  0  0
   -8.0011    5.4443  -18.1867 O   0  0  0  0  0  0  0  0  0  0  0  0
   -7.9916    4.0385   -8.5608 O   0  0  0  0  0  0  0  0  0  0  0  0
   -6.5060    5.2167  -14.4340 H   0  0  0  0  0  0  0  0  0  0  0  0
   -7.8845    4.1033  -14.3484 H   0  0  0  0  0  0  0  0  0  0  0  0
   -9.8598    6.0860  -16.6316 H   0  0  0  0  0  0  0  0  0  0  0  0
   -8.6843    7.3741  -16.3123 H   0  0  0  0  0  0  0  0  0  0  0  0
   -8.3963    7.3720  -11.2056 H   0  0  0  0  0  0  0  0  0  0  0  0
  -10.0517    6.7596  -10.8976 H   0  0  0  0  0  0  0  0  0  0  0  0
   -8.3398    3.5760  -11.4824 H   0  0  0  0  0  0  0  0  0  0  0  0
   -6.9578    4.6978  -11.7016 H   0  0  0  0  0  0  0  0  0  0  0  0
  -11.6180    5.8690  -14.0206 H   0  0  0  0  0  0  0  0  0  0  0  0
  -10.6218    4.6187  -14.7988 H   0  0  0  0  0  0  0  0  0  0  0  0
   -7.6801    7.0112  -13.4461 H   0  0  0  0  0  0  0  0  0  0  0  0
   -8.2949    2.8168  -17.6975 H   0  0  0  0  0  0  0  0  0  0  0  0
   -9.8447    3.6533  -17.4517 H   0  0  0  0  0  0  0  0  0  0  0  0
   -9.6077    2.5615  -18.8337 H   0  0  0  0  0  0  0  0  0  0  0  0
   -9.4172    6.0191  -20.3695 H   0  0  0  0  0  0  0  0  0  0  0  0
  -10.4777    5.6085  -19.0331 H   0  0  0  0  0  0  0  0  0  0  0  0
  -10.3278    4.4930  -20.4090 H   0  0  0  0  0  0  0  0  0  0  0  0
   -7.2131    4.8450  -20.6759 H   0  0  0  0  0  0  0  0  0  0  0  0
   -6.7199    3.5392  -19.5764 H   0  0  0  0  0  0  0  0  0  0  0  0
   -8.0173    3.2876  -20.7664 H   0  0  0  0  0  0  0  0  0  0  0  0
  -10.4971    3.3528   -9.2658 H   0  0  0  0  0  0  0  0  0  0  0  0
   -9.3486    2.1313   -9.8579 H   0  0  0  0  0  0  0  0  0  0  0  0
  -10.4703    1.7595   -8.5307 H   0  0  0  0  0  0  0  0  0  0  0  0
   -7.1380    2.2330   -6.7925 H   0  0  0  0  0  0  0  0  0  0  0  0
   -7.3086    1.5101   -8.3823 H   0  0  0  0  0  0  0  0  0  0  0  0
   -8.4350    1.0532   -7.0853 H   0  0  0  0  0  0  0  0  0  0  0  0
   -8.7562    3.9850   -5.9909 H   0  0  0  0  0  0  0  0  0  0  0  0
  -10.1335    4.4777   -6.9997 H   0  0  0  0  0  0  0  0  0  0  0  0
  -10.1065    2.8852   -6.2087 H   0  0  0  0  0  0  0  0  0  0  0  0
   -9.3698    9.7313  -14.2000 H   0  0  0  0  0  0  0  0  0  0  0  0
  1 10  1  1  0  0  0
  1 22  2  0  0  0  0
  1 26  1  0  0  0  0
  2 20  1  0  0  0  0
  2 23  2  0  0  0  0
  2 27  1  0  0  0  0
  3 21  1  0  0  0  0
  3 24  2  0  0  0  0
  3 28  1  0  0  0  0
  4  9  1  6  0  0  0
  4 20  1  0  0  0  0
  5 10  1  0  0  0  0
  5 20  1  0  0  0  0
  6 11  1  0  0  0  0
  6 21  1  0  0  0  0
  7 11  1  0  0  0  0
  7 21  1  0  0  0  0
  8 10  1  0  0  0  0
  8 25  1  0  0  0  0
  9 10  1  0  0  0  0
  9 11  1  0  0  0  0
 11 25  1  0  0  0  0
 12 18  1  0  0  0  0
 13 18  1  0  0  0  0
 14 18  1  0  0  0  0
 15 19  1  0  0  0  0
 16 19  1  0  0  0  0
 17 19  1  0  0  0  0
 18 27  1  0  0  0  0
 19 28  1  0  0  0  0
  4 29  1  0  0  0  0
  4 30  1  0  0  0  0
  5 31  1  0  0  0  0
  5 32  1  0  0  0  0
  6 33  1  0  0  0  0
  6 34  1  0  0  0  0
  7 35  1  0  0  0  0
  7 36  1  0  0  0  0
  8 37  1  0  0  0  0
  8 38  1  0  0  0  0
  9 39  1  0  0  0  0
 12 40  1  0  0  0  0
 12 41  1  0  0  0  0
 12 42  1  0  0  0  0
 13 43  1  0  0  0  0
 13 44  1  0  0  0  0
 13 45  1  0  0  0  0
 14 46  1  0  0  0  0
 14 47  1  0  0  0  0
 14 48  1  0  0  0  0
 15 49  1  0  0  0  0
 15 50  1  0  0  0  0
 15 51  1  0  0  0  0
 16 52  1  0  0  0  0
 16 53  1  0  0  0  0
 16 54  1  0  0  0  0
 17 55  1  0  0  0  0
 17 56  1  0  0  0  0
 17 57  1  0  0  0  0
 26 58  1  0  0  0  0
M  END
> <id>
EN300-28303133

> <smiles>
CC(C)(C)OC(=O)N1CC2(C1)OC[C@@]3(CN(C[C@H]23)C(=O)OC(C)(C)C)C(=O)O |&1:13,17,r|

> <IUPAC Name>
rac-(3'aR,6'aR)-1,5'-bis[(tert-butoxy)carbonyl]-hexahydrospiro[azetidine-3,1'-furo[3,4-c]pyrrole]-3'a-carboxylic acid

> <CAS>
2679927-05-8

> <URL>
https://www.enaminestore.com/catalog/EN300-28303133

> <ROCS_ShapeQuery>
_x0404_0B

> <ROCS_TanimotoCombo>
0.438 

> <ROCS_ShapeTanimoto>
0.387 

> <ROCS_ColorTanimoto>
0.051 

> <ROCS_RefTversky>
0.344 

> <ROCS_RefColorTversky>
0.058 

> <ROCS_RefTverskyCombo>
0.402 

> <ROCS_FitTversky>
1.478 

> <ROCS_FitColorTversky>
0.292 

> <ROCS_FitTverskyCombo>
1.769 

> <ROCS_ColorScore>
-4.181

> <ROCS_Overlap>
2301.557

> <ROCS_Rank>
259                 

$$$$
untitled-dbase-180613_1799
  -OEChem-08222312023D

 44 45  0     0  0  0  0  0  0999 V2000
   -8.6939    5.4865   -9.5824 C   0  0  0  0  0  0  0  0  0  0  0  0
   -8.4059    5.7973  -15.2049 C   0  0  0  0  0  0  0  0  0  0  0  0
   -8.7379    2.0619   -8.1064 C   0  0  0  0  0  0  0  0  0  0  0  0
   -8.6363    3.7253   -6.3796 C   0  0  0  0  0  0  0  0  0  0  0  0
   -9.3366    3.0629   -9.0961 C   0  0  0  0  0  0  0  0  0  0  0  0
   -9.2742    4.7603   -7.2980 C   0  0  0  0  0  0  0  0  0  0  0  0
   -8.2582    6.1240  -12.0147 C   0  0  0  0  0  0  0  0  0  0  0  0
   -9.0730    4.1696  -11.8206 C   0  0  0  0  0  0  0  0  0  0  0  0
   -9.1704    5.2619  -12.8963 C   0  0  0  0  0  0  0  0  0  0  0  0
   -9.4292    6.4916  -17.5107 C   0  0  0  0  0  0  0  0  0  0  0  0
   -7.6435    5.1468  -18.6561 C   0  0  0  0  0  0  0  0  0  0  0  0
   -9.5525    3.9778  -17.5171 C   0  0  0  0  0  0  0  0  0  0  0  0
   -8.6257    5.1922  -17.4875 C   0  0  0  0  0  0  0  0  0  0  0  0
   -9.0849    2.3783   -6.7237 N   0  0  0  0  0  0  0  0  0  0  0  0
   -9.0628    4.4523   -8.7152 N   0  0  0  0  0  0  0  0  0  0  0  0
   -8.5960    5.2119  -10.9259 N   0  0  0  0  0  0  0  0  0  0  0  0
   -8.6020    4.8982  -14.1857 N   0  0  0  0  0  0  0  0  0  0  0  0
   -8.4809    6.6358   -9.1731 O   0  0  0  0  0  0  0  0  0  0  0  0
   -8.6729    6.9941  -15.1743 O   0  0  0  0  0  0  0  0  0  0  0  0
   -7.8596    5.1517  -16.2783 O   0  0  0  0  0  0  0  0  0  0  0  0
   -9.1007    1.0556   -8.3435 H   0  0  0  0  0  0  0  0  0  0  0  0
   -7.6466    2.0324   -8.2156 H   0  0  0  0  0  0  0  0  0  0  0  0
   -7.5425    3.7861   -6.4322 H   0  0  0  0  0  0  0  0  0  0  0  0
   -8.9138    3.9372   -5.3412 H   0  0  0  0  0  0  0  0  0  0  0  0
   -8.9126    2.8443  -10.0764 H   0  0  0  0  0  0  0  0  0  0  0  0
  -10.4254    2.9485   -9.1474 H   0  0  0  0  0  0  0  0  0  0  0  0
  -10.3603    4.7860   -7.1427 H   0  0  0  0  0  0  0  0  0  0  0  0
   -8.8956    5.7573   -7.0513 H   0  0  0  0  0  0  0  0  0  0  0  0
   -7.1894    6.1080  -12.2489 H   0  0  0  0  0  0  0  0  0  0  0  0
   -8.5991    7.1519  -11.8664 H   0  0  0  0  0  0  0  0  0  0  0  0
  -10.0337    3.7300  -11.5430 H   0  0  0  0  0  0  0  0  0  0  0  0
   -8.3272    3.3911  -12.0075 H   0  0  0  0  0  0  0  0  0  0  0  0
  -10.1812    5.6730  -13.0076 H   0  0  0  0  0  0  0  0  0  0  0  0
  -10.1354    6.5281  -16.6734 H   0  0  0  0  0  0  0  0  0  0  0  0
   -8.7778    7.3698  -17.4546 H   0  0  0  0  0  0  0  0  0  0  0  0
  -10.0296    6.5638  -18.4248 H   0  0  0  0  0  0  0  0  0  0  0  0
   -7.0648    4.2161  -18.6434 H   0  0  0  0  0  0  0  0  0  0  0  0
   -6.9160    5.9636  -18.5865 H   0  0  0  0  0  0  0  0  0  0  0  0
   -8.1581    5.2219  -19.6195 H   0  0  0  0  0  0  0  0  0  0  0  0
   -8.9764    3.0456  -17.5005 H   0  0  0  0  0  0  0  0  0  0  0  0
  -10.2401    3.9743  -16.6651 H   0  0  0  0  0  0  0  0  0  0  0  0
  -10.1424    3.9602  -18.4407 H   0  0  0  0  0  0  0  0  0  0  0  0
  -10.0984    2.3289   -6.6172 H   0  0  0  0  0  0  0  0  0  0  0  0
   -8.3381    3.9350  -14.3387 H   0  0  0  0  0  0  0  0  0  0  0  0
  1 15  1  0  0  0  0
  1 16  1  0  0  0  0
  1 18  2  0  0  0  0
  2 17  1  0  0  0  0
  2 19  2  0  0  0  0
  2 20  1  0  0  0  0
  3  5  1  0  0  0  0
  3 14  1  0  0  0  0
  4  6  1  0  0  0  0
  4 14  1  0  0  0  0
  5 15  1  0  0  0  0
  6 15  1  0  0  0  0
  7  9  1  0  0  0  0
  7 16  1  0  0  0  0
  8  9  1  0  0  0  0
  8 16  1  0  0  0  0
  9 17  1  0  0  0  0
 10 13  1  0  0  0  0
 11 13  1  0  0  0  0
 12 13  1  0  0  0  0
 13 20  1  0  0  0  0
  3 21  1  0  0  0  0
  3 22  1  0  0  0  0
  4 23  1  0  0  0  0
  4 24  1  0  0  0  0
  5 25  1  0  0  0  0
  5 26  1  0  0  0  0
  6 27  1  0  0  0  0
  6 28  1  0  0  0  0
  7 29  1  0  0  0  0
  7 30  1  0  0  0  0
  8 31  1  0  0  0  0
  8 32  1  0  0  0  0
  9 33  1  0  0  0  0
 10 34  1  0  0  0  0
 10 35  1  0  0  0  0
 10 36  1  0  0  0  0
 11 37  1  0  0  0  0
 11 38  1  0  0  0  0
 11 39  1  0  0  0  0
 12 40  1  0  0  0  0
 12 41  1  0  0  0  0
 12 42  1  0  0  0  0
 14 43  1  0  0  0  0
 17 44  1  0  0  0  0
M  END
> <id>
EN300-45584652

> <smiles>
CC(C)(C)OC(=O)NC1CN(C1)C(=O)N2CCNCC2

> <IUPAC Name>
tert-butyl N-[1-(piperazine-1-carbonyl)azetidin-3-yl]carbamate

> <URL>
https://www.enaminestore.com/catalog/EN300-45584652

> <ROCS_ShapeQuery>
_x0404_0B

> <ROCS_TanimotoCombo>
0.438 

> <ROCS_ShapeTanimoto>
0.345 

> <ROCS_ColorTanimoto>
0.093 

> <ROCS_RefTversky>
0.302 

> <ROCS_RefColorTversky>
0.098 

> <ROCS_RefTverskyCombo>
0.400 

> <ROCS_FitTversky>
1.704 

> <ROCS_FitColorTversky>
0.624 

> <ROCS_FitTverskyCombo>
2.327 

> <ROCS_ColorScore>
-7.096

> <ROCS_Overlap>
2013.935

> <ROCS_Rank>
260                 

$$$$
untitled-dbase-77111_86
  -OEChem-08222312023D

 45 47  0     0  0  0  0  0  0999 V2000
   -8.9457    2.6842   -9.6295 C   0  0  0  0  0  0  0  0  0  0  0  0
   -8.9287    4.0884   -9.5657 C   0  0  0  0  0  0  0  0  0  0  0  0
   -9.0462    4.7575   -8.3365 C   0  0  0  0  0  0  0  0  0  0  0  0
   -9.1801    3.9843   -7.1859 C   0  0  0  0  0  0  0  0  0  0  0  0
   -9.0805    1.9365   -8.4639 C   0  0  0  0  0  0  0  0  0  0  0  0
   -9.1979    2.5875   -7.2410 C   0  0  0  0  0  0  0  0  0  0  0  0
   -8.7967    4.8945  -10.6930 C   0  0  0  0  0  0  0  0  0  0  0  0
   -8.8976    6.7683   -9.4276 C   0  0  0  0  0  0  0  0  0  0  0  0
   -9.0570    5.2315  -15.9943 C   0  0  0  0  0  0  0  0  0  0  0  0
   -7.4851    4.5360  -12.7726 C   0  0  0  0  0  0  0  0  0  0  0  0
   -9.8348    3.8115  -12.6964 C   0  0  0  0  0  0  0  0  0  0  0  0
   -7.8319    5.5586  -13.8579 C   0  0  0  0  0  0  0  0  0  0  0  0
  -10.2077    4.8264  -13.7764 C   0  0  0  0  0  0  0  0  0  0  0  0
   -8.1149    4.4930  -18.5940 C   0  0  0  0  0  0  0  0  0  0  0  0
   -5.9225    5.4888  -17.8791 C   0  0  0  0  0  0  0  0  0  0  0  0
   -6.8580    3.5098  -16.6476 C   0  0  0  0  0  0  0  0  0  0  0  0
   -7.1967    4.7904  -17.4093 C   0  0  0  0  0  0  0  0  0  0  0  0
   -9.0309    6.1000   -8.2640 N   0  0  0  0  0  0  0  0  0  0  0  0
   -8.7778    6.2402  -10.6563 N   0  0  0  0  0  0  0  0  0  0  0  0
   -8.6753    4.3026  -11.9453 N   0  0  0  0  0  0  0  0  0  0  0  0
   -9.0351    5.1642  -14.5982 N   0  0  0  0  0  0  0  0  0  0  0  0
  -10.0235    4.9200  -16.6878 O   0  0  0  0  0  0  0  0  0  0  0  0
   -7.8757    5.6841  -16.5196 O   0  0  0  0  0  0  0  0  0  0  0  0
   -9.2937    4.6085   -6.0017 F   0  0  0  0  0  0  0  0  0  0  0  0
   -9.0940    0.2142   -8.6116 Cl  0  0  0  0  0  0  0  0  0  0  0  0
   -8.8793    8.4741   -9.3257 Cl  0  0  0  0  0  0  0  0  0  0  0  0
   -9.3858    1.6384   -5.6029 Br  0  0  0  0  0  0  0  0  0  0  0  0
   -8.8544    2.1689  -10.5833 H   0  0  0  0  0  0  0  0  0  0  0  0
   -7.1500    3.6159  -13.2474 H   0  0  0  0  0  0  0  0  0  0  0  0
   -6.6796    4.9098  -12.1442 H   0  0  0  0  0  0  0  0  0  0  0  0
  -10.6837    3.6758  -12.0248 H   0  0  0  0  0  0  0  0  0  0  0  0
   -9.6011    2.8486  -13.1543 H   0  0  0  0  0  0  0  0  0  0  0  0
   -7.9816    6.5436  -13.4109 H   0  0  0  0  0  0  0  0  0  0  0  0
   -7.0179    5.6448  -14.5829 H   0  0  0  0  0  0  0  0  0  0  0  0
  -10.9924    4.4236  -14.4099 H   0  0  0  0  0  0  0  0  0  0  0  0
  -10.5641    5.7521  -13.3297 H   0  0  0  0  0  0  0  0  0  0  0  0
   -9.0307    3.9917  -18.2609 H   0  0  0  0  0  0  0  0  0  0  0  0
   -8.3934    5.4074  -19.1279 H   0  0  0  0  0  0  0  0  0  0  0  0
   -7.6302    3.8122  -19.3031 H   0  0  0  0  0  0  0  0  0  0  0  0
   -5.2607    5.7041  -17.0323 H   0  0  0  0  0  0  0  0  0  0  0  0
   -6.1548    6.4544  -18.3425 H   0  0  0  0  0  0  0  0  0  0  0  0
   -5.3717    4.8801  -18.6035 H   0  0  0  0  0  0  0  0  0  0  0  0
   -6.1995    3.7228  -15.7978 H   0  0  0  0  0  0  0  0  0  0  0  0
   -7.7588    3.0143  -16.2710 H   0  0  0  0  0  0  0  0  0  0  0  0
   -6.3162    2.8061  -17.2899 H   0  0  0  0  0  0  0  0  0  0  0  0
  1  2  2  0  0  0  0
  1  5  1  0  0  0  0
  2  3  1  0  0  0  0
  2  7  1  0  0  0  0
  3  4  2  0  0  0  0
  3 18  1  0  0  0  0
  4  6  1  0  0  0  0
  4 24  1  0  0  0  0
  5  6  2  0  0  0  0
  5 25  1  0  0  0  0
  6 27  1  0  0  0  0
  7 19  2  0  0  0  0
  7 20  1  0  0  0  0
  8 18  2  0  0  0  0
  8 19  1  0  0  0  0
  8 26  1  0  0  0  0
  9 21  1  0  0  0  0
  9 22  2  0  0  0  0
  9 23  1  0  0  0  0
 10 12  1  0  0  0  0
 10 20  1  0  0  0  0
 11 13  1  0  0  0  0
 11 20  1  0  0  0  0
 12 21  1  0  0  0  0
 13 21  1  0  0  0  0
 14 17  1  0  0  0  0
 15 17  1  0  0  0  0
 16 17  1  0  0  0  0
 17 23  1  0  0  0  0
  1 28  1  0  0  0  0
 10 29  1  0  0  0  0
 10 30  1  0  0  0  0
 11 31  1  0  0  0  0
 11 32  1  0  0  0  0
 12 33  1  0  0  0  0
 12 34  1  0  0  0  0
 13 35  1  0  0  0  0
 13 36  1  0  0  0  0
 14 37  1  0  0  0  0
 14 38  1  0  0  0  0
 14 39  1  0  0  0  0
 15 40  1  0  0  0  0
 15 41  1  0  0  0  0
 15 42  1  0  0  0  0
 16 43  1  0  0  0  0
 16 44  1  0  0  0  0
 16 45  1  0  0  0  0
M  END
> <id>
EN300-1268215

> <smiles>
CC(C)(C)OC(=O)N1CCN(CC1)C=2N=C(Cl)N=C3C(F)=C(Br)C(Cl)=CC23

> <MDLNUMBER>
MFCD30803634

> <IUPAC Name>
tert-butyl 4-(7-bromo-2,6-dichloro-8-fluoroquinazolin-4-yl)piperazine-1-carboxylate

> <CAS>
1698028-12-4

> <Purity>
93

> <URL>
https://www.enaminestore.com/catalog/EN300-1268215

> <ROCS_ShapeQuery>
_x0404_0B

> <ROCS_TanimotoCombo>
0.438 

> <ROCS_ShapeTanimoto>
0.378 

> <ROCS_ColorTanimoto>
0.060 

> <ROCS_RefTversky>
0.335 

> <ROCS_RefColorTversky>
0.066 

> <ROCS_RefTverskyCombo>
0.401 

> <ROCS_FitTversky>
1.499 

> <ROCS_FitColorTversky>
0.416 

> <ROCS_FitTverskyCombo>
1.914 

> <ROCS_ColorScore>
-4.737

> <ROCS_Overlap>
2242.900

> <ROCS_Rank>
261                 

$$$$
untitled-dbase-7817_18
  -OEChem-08222312023D

 38 41  0     1  0  0  0  0  0999 V2000
   -8.2368    4.8168  -18.8184 C   0  0  0  0  0  0  0  0  0  0  0  0
   -9.5555    4.5143  -18.4891 C   0  0  0  0  0  0  0  0  0  0  0  0
   -8.8130    6.2019  -10.2501 C   0  0  0  0  0  0  0  0  0  0  0  0
   -7.3750    5.3262  -17.8478 C   0  0  0  0  0  0  0  0  0  0  0  0
  -10.0127    4.7143  -17.1867 C   0  0  0  0  0  0  0  0  0  0  0  0
   -8.9180    2.5342  -10.4491 C   0  0  0  0  0  0  0  0  0  0  0  0
   -8.9982    2.1769   -9.1008 C   0  0  0  0  0  0  0  0  0  0  0  0
   -8.7342    6.5239  -11.5974 C   0  0  0  0  0  0  0  0  0  0  0  0
   -8.9563    4.5017   -8.4922 C   0  0  0  0  0  0  0  0  0  0  0  0
   -8.8757    4.8608   -9.8484 C   0  0  0  0  0  0  0  0  0  0  0  0
   -7.8287    5.5443  -16.5398 C   0  0  0  0  0  0  0  0  0  0  0  0
   -9.1546    5.2200  -16.1989 C   0  0  0  0  0  0  0  0  0  0  0  0
   -8.8559    3.8663  -10.8487 C   0  0  0  0  0  0  0  0  0  0  0  0
   -9.0174    3.1616   -8.1209 C   0  0  0  0  0  0  0  0  0  0  0  0
   -8.7207    5.4823  -12.5027 C   0  0  0  0  0  0  0  0  0  0  0  0
   -6.8813    6.0767  -15.4964 C   0  0  0  0  0  0  0  0  0  0  0  0
   -9.6882    5.4198  -14.7955 C   0  0  0  0  0  0  0  0  0  0  0  0
   -7.6411    6.7446  -14.3549 C   0  0  0  0  0  0  0  0  0  0  0  0
   -8.7794    4.1758  -12.1569 N   0  0  0  0  0  0  0  0  0  0  0  0
   -8.6423    5.8081  -13.8391 N   0  0  3  0  0  0  0  0  0  0  0  0
   -9.0982    2.8061   -6.7597 N   0  0  0  0  0  0  0  0  0  0  0  0
   -7.8789    4.6558  -19.8311 H   0  0  0  0  0  0  0  0  0  0  0  0
  -10.2274    4.1193  -19.2455 H   0  0  0  0  0  0  0  0  0  0  0  0
   -8.8252    7.0032   -9.5148 H   0  0  0  0  0  0  0  0  0  0  0  0
   -6.3471    5.5554  -18.1174 H   0  0  0  0  0  0  0  0  0  0  0  0
  -11.0436    4.4692  -16.9428 H   0  0  0  0  0  0  0  0  0  0  0  0
   -8.9046    1.7439  -11.1975 H   0  0  0  0  0  0  0  0  0  0  0  0
   -9.0449    1.1249   -8.8311 H   0  0  0  0  0  0  0  0  0  0  0  0
   -8.6857    7.5610  -11.9117 H   0  0  0  0  0  0  0  0  0  0  0  0
   -8.9713    5.2737   -7.7246 H   0  0  0  0  0  0  0  0  0  0  0  0
   -6.2725    5.2482  -15.1143 H   0  0  0  0  0  0  0  0  0  0  0  0
   -6.2033    6.8117  -15.9460 H   0  0  0  0  0  0  0  0  0  0  0  0
  -10.4625    6.1976  -14.8326 H   0  0  0  0  0  0  0  0  0  0  0  0
  -10.1505    4.4833  -14.4584 H   0  0  0  0  0  0  0  0  0  0  0  0
   -6.9233    7.0182  -13.5711 H   0  0  0  0  0  0  0  0  0  0  0  0
   -8.1283    7.6687  -14.6936 H   0  0  0  0  0  0  0  0  0  0  0  0
   -9.1889    1.8412   -6.5108 H   0  0  0  0  0  0  0  0  0  0  0  0
   -9.1586    3.5273   -6.0688 H   0  0  0  0  0  0  0  0  0  0  0  0
  1  2  2  0  0  0  0
  1  4  1  0  0  0  0
  2  5  1  0  0  0  0
  3  8  2  0  0  0  0
  3 10  1  0  0  0  0
  4 11  2  0  0  0  0
  5 12  2  0  0  0  0
  6  7  1  0  0  0  0
  6 13  2  0  0  0  0
  7 14  2  0  0  0  0
  8 15  1  0  0  0  0
  9 10  2  0  0  0  0
  9 14  1  0  0  0  0
 10 13  1  0  0  0  0
 11 12  1  0  0  0  0
 11 16  1  0  0  0  0
 12 17  1  0  0  0  0
 13 19  1  0  0  0  0
 14 21  1  0  0  0  0
 15 19  2  0  0  0  0
 15 20  1  0  0  0  0
 16 18  1  0  0  0  0
 17 20  1  0  0  0  0
 18 20  1  0  0  0  0
  1 22  1  0  0  0  0
  2 23  1  0  0  0  0
  3 24  1  0  0  0  0
  4 25  1  0  0  0  0
  5 26  1  0  0  0  0
  6 27  1  0  0  0  0
  7 28  1  0  0  0  0
  8 29  1  0  0  0  0
  9 30  1  0  0  0  0
 16 31  1  0  0  0  0
 16 32  1  0  0  0  0
 17 33  1  0  0  0  0
 17 34  1  0  0  0  0
 18 35  1  0  0  0  0
 18 36  1  0  0  0  0
 21 37  1  0  0  0  0
 21 38  1  0  0  0  0
M  END
> <id>
EN300-119692

> <smiles>
NC=1C=CC=2N=C(C=CC2C1)N3CCC=4C=CC=CC4C3

> <MDLNUMBER>
MFCD13698780

> <IUPAC Name>
2-(1,2,3,4-tetrahydroisoquinolin-2-yl)quinolin-6-amine

> <CAS>
1154583-56-8

> <Purity>
95

> <URL>
https://www.enaminestore.com/catalog/EN300-119692

> <ROCS_ShapeQuery>
_x0404_0B

> <ROCS_TanimotoCombo>
0.438 

> <ROCS_ShapeTanimoto>
0.380 

> <ROCS_ColorTanimoto>
0.058 

> <ROCS_RefTversky>
0.328 

> <ROCS_RefColorTversky>
0.063 

> <ROCS_RefTverskyCombo>
0.391 

> <ROCS_FitTversky>
1.711 

> <ROCS_FitColorTversky>
0.435 

> <ROCS_FitTverskyCombo>
2.146 

> <ROCS_ColorScore>
-4.540

> <ROCS_Overlap>
2187.891

> <ROCS_Rank>
262                 

$$$$
untitled-dbase-22544_3
  -OEChem-08222312023D

 30 33  0     0  0  0  0  0  0999 V2000
   -8.6953    4.7440  -18.3371 C   0  0  0  0  0  0  0  0  0  0  0  0
   -7.9399    5.9099  -18.1877 C   0  0  0  0  0  0  0  0  0  0  0  0
   -9.2163    4.0723  -17.2227 C   0  0  0  0  0  0  0  0  0  0  0  0
   -7.6775    6.4469  -16.9238 C   0  0  0  0  0  0  0  0  0  0  0  0
   -9.3004    4.2293  -14.6117 C   0  0  0  0  0  0  0  0  0  0  0  0
   -8.8610    6.6838   -9.1764 C   0  0  0  0  0  0  0  0  0  0  0  0
   -9.0361    4.6112   -7.9108 C   0  0  0  0  0  0  0  0  0  0  0  0
   -8.9649    4.5948  -15.9420 C   0  0  0  0  0  0  0  0  0  0  0  0
   -8.8493    5.9309  -10.3627 C   0  0  0  0  0  0  0  0  0  0  0  0
   -8.9314    4.5434  -10.2866 C   0  0  0  0  0  0  0  0  0  0  0  0
   -9.0260    3.8461   -9.0818 C   0  0  0  0  0  0  0  0  0  0  0  0
   -8.2085    5.7575  -15.8353 C   0  0  0  0  0  0  0  0  0  0  0  0
   -8.9553    6.0050   -7.9550 C   0  0  0  0  0  0  0  0  0  0  0  0
   -8.7347    5.1799  -13.7939 C   0  0  0  0  0  0  0  0  0  0  0  0
   -8.7962    5.2394  -12.3823 C   0  0  0  0  0  0  0  0  0  0  0  0
   -8.7662    6.3449  -11.6724 N   0  0  0  0  0  0  0  0  0  0  0  0
   -8.8953    4.1276  -11.5929 N   0  0  0  0  0  0  0  0  0  0  0  0
   -9.1080    2.4448   -9.0233 N   0  0  0  0  0  0  0  0  0  0  0  0
   -8.0700    6.1112  -14.5265 O   0  0  0  0  0  0  0  0  0  0  0  0
   -8.9715    6.9055   -6.4853 Cl  0  0  0  0  0  0  0  0  0  0  0  0
   -8.8838    4.3515  -19.3333 H   0  0  0  0  0  0  0  0  0  0  0  0
   -7.5494    6.4098  -19.0703 H   0  0  0  0  0  0  0  0  0  0  0  0
   -9.8021    3.1677  -17.3546 H   0  0  0  0  0  0  0  0  0  0  0  0
   -7.0935    7.3511  -16.7996 H   0  0  0  0  0  0  0  0  0  0  0  0
   -9.8835    3.3742  -14.2970 H   0  0  0  0  0  0  0  0  0  0  0  0
   -8.7975    7.7671   -9.2160 H   0  0  0  0  0  0  0  0  0  0  0  0
   -9.1086    4.1061   -6.9487 H   0  0  0  0  0  0  0  0  0  0  0  0
   -8.9347    3.1680  -11.9108 H   0  0  0  0  0  0  0  0  0  0  0  0
   -9.1267    1.9885   -8.1307 H   0  0  0  0  0  0  0  0  0  0  0  0
   -9.0517    1.9118   -9.8707 H   0  0  0  0  0  0  0  0  0  0  0  0
  1  2  2  0  0  0  0
  1  3  1  0  0  0  0
  2  4  1  0  0  0  0
  3  8  2  0  0  0  0
  4 12  2  0  0  0  0
  5  8  1  0  0  0  0
  5 14  2  0  0  0  0
  6  9  1  0  0  0  0
  6 13  2  0  0  0  0
  7 11  2  0  0  0  0
  7 13  1  0  0  0  0
  8 12  1  0  0  0  0
  9 10  2  0  0  0  0
  9 16  1  0  0  0  0
 10 11  1  0  0  0  0
 10 17  1  0  0  0  0
 11 18  1  0  0  0  0
 12 19  1  0  0  0  0
 13 20  1  0  0  0  0
 14 15  1  0  0  0  0
 14 19  1  0  0  0  0
 15 16  2  0  0  0  0
 15 17  1  0  0  0  0
  1 21  1  0  0  0  0
  2 22  1  0  0  0  0
  3 23  1  0  0  0  0
  4 24  1  0  0  0  0
  5 25  1  0  0  0  0
  6 26  1  0  0  0  0
  7 27  1  0  0  0  0
 17 28  1  0  0  0  0
 18 29  1  0  0  0  0
 18 30  1  0  0  0  0
M  END
> <id>
EN300-306606

> <smiles>
NC=1C=C(Cl)C=C2N=C(NC12)C3=CC=4C=CC=CC4O3

> <MDLNUMBER>
MFCD30345029

> <IUPAC Name>
2-(1-benzofuran-2-yl)-5-chloro-1H-1,3-benzodiazol-7-amine

> <CAS>
1916702-26-5

> <Purity>
95

> <URL>
https://www.enaminestore.com/catalog/EN300-306606

> <ROCS_ShapeQuery>
_x0404_0B

> <ROCS_TanimotoCombo>
0.438 

> <ROCS_ShapeTanimoto>
0.345 

> <ROCS_ColorTanimoto>
0.093 

> <ROCS_RefTversky>
0.305 

> <ROCS_RefColorTversky>
0.100 

> <ROCS_RefTverskyCombo>
0.405 

> <ROCS_FitTversky>
1.623 

> <ROCS_FitColorTversky>
0.545 

> <ROCS_FitTverskyCombo>
2.168 

> <ROCS_ColorScore>
-7.261

> <ROCS_Overlap>
2032.892

> <ROCS_Rank>
263                 

$$$$
untitled-dbase-49321_1200
  -OEChem-08222312023D

 42 44  0     0  0  0  0  0  0999 V2000
   -7.2366    5.3161  -17.8989 C   0  0  0  0  0  0  0  0  0  0  0  0
   -7.2632    5.1798  -16.5110 C   0  0  0  0  0  0  0  0  0  0  0  0
   -8.3307    4.9065  -18.6611 C   0  0  0  0  0  0  0  0  0  0  0  0
   -9.4780    4.2240  -16.6474 C   0  0  0  0  0  0  0  0  0  0  0  0
   -8.3839    4.6337  -15.8853 C   0  0  0  0  0  0  0  0  0  0  0  0
   -9.4513    4.3604  -18.0354 C   0  0  0  0  0  0  0  0  0  0  0  0
   -8.4114    4.4914  -14.4305 C   0  0  0  0  0  0  0  0  0  0  0  0
   -8.8463    5.3688  -13.5155 C   0  0  0  0  0  0  0  0  0  0  0  0
   -7.9591    3.2816  -13.6911 C   0  0  0  0  0  0  0  0  0  0  0  0
   -9.2665    5.5228   -8.8803 C   0  0  0  0  0  0  0  0  0  0  0  0
   -9.9458    4.8784  -11.2581 C   0  0  0  0  0  0  0  0  0  0  0  0
   -7.9685    5.7005  -11.1361 C   0  0  0  0  0  0  0  0  0  0  0  0
   -8.7012    4.8144  -12.1629 C   0  0  0  0  0  0  0  0  0  0  0  0
   -9.1040    4.6204   -6.0930 C   0  0  0  0  0  0  0  0  0  0  0  0
  -10.5899    2.7386   -6.8417 C   0  0  0  0  0  0  0  0  0  0  0  0
   -8.2822    2.9693   -7.8058 C   0  0  0  0  0  0  0  0  0  0  0  0
   -9.4976    3.7194   -7.2627 C   0  0  0  0  0  0  0  0  0  0  0  0
   -9.0863    5.4646  -10.2420 N   0  0  0  0  0  0  0  0  0  0  0  0
   -7.4927    2.2702  -14.1865 O   0  0  0  0  0  0  0  0  0  0  0  0
   -8.8226    6.4369   -8.1857 O   0  0  0  0  0  0  0  0  0  0  0  0
   -8.1420    3.4947  -12.3524 O   0  0  0  0  0  0  0  0  0  0  0  0
   -9.3889    6.6059  -13.7015 O   0  0  0  0  0  0  0  0  0  0  0  0
  -10.0345    4.5409   -8.3119 O   0  0  0  0  0  0  0  0  0  0  0  0
  -10.5017    3.9669  -18.7674 F   0  0  0  0  0  0  0  0  0  0  0  0
   -6.3642    5.7412  -18.3866 H   0  0  0  0  0  0  0  0  0  0  0  0
   -6.4025    5.5030  -15.9304 H   0  0  0  0  0  0  0  0  0  0  0  0
   -8.3106    5.0133  -19.7416 H   0  0  0  0  0  0  0  0  0  0  0  0
  -10.3588    3.7965  -16.1747 H   0  0  0  0  0  0  0  0  0  0  0  0
  -10.7545    5.5468  -11.5645 H   0  0  0  0  0  0  0  0  0  0  0  0
  -10.3587    3.9113  -10.9597 H   0  0  0  0  0  0  0  0  0  0  0  0
   -7.0251    5.2950  -10.7597 H   0  0  0  0  0  0  0  0  0  0  0  0
   -7.8413    6.7570  -11.3882 H   0  0  0  0  0  0  0  0  0  0  0  0
   -8.3201    5.3258   -6.3912 H   0  0  0  0  0  0  0  0  0  0  0  0
   -9.9599    5.1902   -5.7169 H   0  0  0  0  0  0  0  0  0  0  0  0
   -8.6909    4.0304   -5.2668 H   0  0  0  0  0  0  0  0  0  0  0  0
  -10.8754    2.0902   -7.6779 H   0  0  0  0  0  0  0  0  0  0  0  0
  -11.4987    3.2722   -6.5406 H   0  0  0  0  0  0  0  0  0  0  0  0
  -10.2663    2.1071   -6.0080 H   0  0  0  0  0  0  0  0  0  0  0  0
   -8.5643    2.3230   -8.6448 H   0  0  0  0  0  0  0  0  0  0  0  0
   -7.5026    3.6581   -8.1471 H   0  0  0  0  0  0  0  0  0  0  0  0
   -7.8553    2.3124   -7.0393 H   0  0  0  0  0  0  0  0  0  0  0  0
   -9.4388    6.8188  -14.6441 H   0  0  0  0  0  0  0  0  0  0  0  0
  1  2  1  0  0  0  0
  1  3  2  0  0  0  0
  2  5  2  0  0  0  0
  3  6  1  0  0  0  0
  4  5  1  0  0  0  0
  4  6  2  0  0  0  0
  5  7  1  0  0  0  0
  6 24  1  0  0  0  0
  7  8  2  0  0  0  0
  7  9  1  0  0  0  0
  8 13  1  0  0  0  0
  8 22  1  0  0  0  0
  9 19  2  0  0  0  0
  9 21  1  0  0  0  0
 10 18  1  0  0  0  0
 10 20  2  0  0  0  0
 10 23  1  0  0  0  0
 11 13  1  0  0  0  0
 11 18  1  0  0  0  0
 12 13  1  0  0  0  0
 12 18  1  0  0  0  0
 13 21  1  0  0  0  0
 14 17  1  0  0  0  0
 15 17  1  0  0  0  0
 16 17  1  0  0  0  0
 17 23  1  0  0  0  0
  1 25  1  0  0  0  0
  2 26  1  0  0  0  0
  3 27  1  0  0  0  0
  4 28  1  0  0  0  0
 11 29  1  0  0  0  0
 11 30  1  0  0  0  0
 12 31  1  0  0  0  0
 12 32  1  0  0  0  0
 14 33  1  0  0  0  0
 14 34  1  0  0  0  0
 14 35  1  0  0  0  0
 15 36  1  0  0  0  0
 15 37  1  0  0  0  0
 15 38  1  0  0  0  0
 16 39  1  0  0  0  0
 16 40  1  0  0  0  0
 16 41  1  0  0  0  0
 22 42  1  0  0  0  0
M  END
> <id>
EN300-1647751

> <smiles>
CC(C)(C)OC(=O)N1CC2(C1)OC(=O)C(=C2O)C=3C=CC=C(F)C3

> <IUPAC Name>
tert-butyl 7-(3-fluorophenyl)-8-hydroxy-6-oxo-5-oxa-2-azaspiro[3.4]oct-7-ene-2-carboxylate

> <CAS>
2172446-31-8

> <URL>
https://www.enaminestore.com/catalog/EN300-1647751

> <ROCS_ShapeQuery>
_x0404_0B

> <ROCS_TanimotoCombo>
0.437 

> <ROCS_ShapeTanimoto>
0.360 

> <ROCS_ColorTanimoto>
0.077 

> <ROCS_RefTversky>
0.320 

> <ROCS_RefColorTversky>
0.082 

> <ROCS_RefTverskyCombo>
0.402 

> <ROCS_FitTversky>
1.533 

> <ROCS_FitColorTversky>
0.566 

> <ROCS_FitTverskyCombo>
2.099 

> <ROCS_ColorScore>
-5.908

> <ROCS_Overlap>
2139.612

> <ROCS_Rank>
264                 

$$$$
untitled-dbase-91481_463
  -OEChem-08222312023D

 49 51  0     0  0  0  0  0  0999 V2000
  -10.0715    4.5381  -16.7279 C   0  0  0  0  0  0  0  0  0  0  0  0
  -10.2684    3.8412  -17.9091 C   0  0  0  0  0  0  0  0  0  0  0  0
   -8.1498    4.3267  -18.6533 C   0  0  0  0  0  0  0  0  0  0  0  0
   -8.8384    5.1494  -16.5308 C   0  0  0  0  0  0  0  0  0  0  0  0
   -7.8537    5.0466  -17.5070 C   0  0  0  0  0  0  0  0  0  0  0  0
   -9.2660    4.9552   -9.0773 C   0  0  0  0  0  0  0  0  0  0  0  0
   -9.8826    5.8566  -14.3482 C   0  0  0  0  0  0  0  0  0  0  0  0
   -7.3847    5.4526  -14.4072 C   0  0  0  0  0  0  0  0  0  0  0  0
   -9.7322    6.5597  -12.9954 C   0  0  0  0  0  0  0  0  0  0  0  0
   -7.2321    6.1864  -13.0718 C   0  0  0  0  0  0  0  0  0  0  0  0
   -8.3790    6.6228  -10.8122 C   0  0  0  0  0  0  0  0  0  0  0  0
   -8.6985    4.6394  -11.5753 C   0  0  0  0  0  0  0  0  0  0  0  0
   -8.6097    5.9226  -15.2286 C   0  0  0  0  0  0  0  0  0  0  0  0
   -8.5069    6.0309  -12.2403 C   0  0  0  0  0  0  0  0  0  0  0  0
   -9.0744    3.3118   -6.7505 C   0  0  0  0  0  0  0  0  0  0  0  0
   -9.4556    1.3797   -8.3096 C   0  0  0  0  0  0  0  0  0  0  0  0
   -7.4202    2.8253   -8.5840 C   0  0  0  0  0  0  0  0  0  0  0  0
   -8.8924    2.7929   -8.1761 C   0  0  0  0  0  0  0  0  0  0  0  0
   -9.3360    3.7192  -18.8804 N   0  0  0  0  0  0  0  0  0  0  0  0
   -8.8518    5.3457  -10.3203 N   0  0  0  0  0  0  0  0  0  0  0  0
   -9.3042    5.6950   -8.0981 O   0  0  0  0  0  0  0  0  0  0  0  0
   -8.3717    7.2812  -15.6265 O   0  0  0  0  0  0  0  0  0  0  0  0
   -9.6307    3.6374   -9.0660 O   0  0  0  0  0  0  0  0  0  0  0  0
   -6.1517    5.8454  -17.3210 Br  0  0  0  0  0  0  0  0  0  0  0  0
  -10.8610    4.5990  -15.9866 H   0  0  0  0  0  0  0  0  0  0  0  0
  -11.2127    3.3464  -18.1113 H   0  0  0  0  0  0  0  0  0  0  0  0
   -7.4263    4.2073  -19.4543 H   0  0  0  0  0  0  0  0  0  0  0  0
  -10.1517    4.8066  -14.1725 H   0  0  0  0  0  0  0  0  0  0  0  0
  -10.7259    6.3152  -14.8809 H   0  0  0  0  0  0  0  0  0  0  0  0
   -6.4676    5.6098  -14.9898 H   0  0  0  0  0  0  0  0  0  0  0  0
   -7.4596    4.3737  -14.2160 H   0  0  0  0  0  0  0  0  0  0  0  0
   -9.6363    7.6413  -13.1509 H   0  0  0  0  0  0  0  0  0  0  0  0
  -10.6479    6.4106  -12.4099 H   0  0  0  0  0  0  0  0  0  0  0  0
   -6.3651    5.7799  -12.5366 H   0  0  0  0  0  0  0  0  0  0  0  0
   -7.0209    7.2481  -13.2470 H   0  0  0  0  0  0  0  0  0  0  0  0
   -7.3642    6.8477  -10.4694 H   0  0  0  0  0  0  0  0  0  0  0  0
   -9.0435    7.4578  -10.5732 H   0  0  0  0  0  0  0  0  0  0  0  0
   -9.5882    4.0791  -11.8741 H   0  0  0  0  0  0  0  0  0  0  0  0
   -7.8258    3.9793  -11.5748 H   0  0  0  0  0  0  0  0  0  0  0  0
   -8.6713    4.3260   -6.6505 H   0  0  0  0  0  0  0  0  0  0  0  0
  -10.1294    3.3265   -6.4582 H   0  0  0  0  0  0  0  0  0  0  0  0
   -8.5256    2.6892   -6.0347 H   0  0  0  0  0  0  0  0  0  0  0  0
   -9.3272    1.0034   -9.3309 H   0  0  0  0  0  0  0  0  0  0  0  0
  -10.5332    1.3686   -8.1098 H   0  0  0  0  0  0  0  0  0  0  0  0
   -8.9678    0.6835   -7.6197 H   0  0  0  0  0  0  0  0  0  0  0  0
   -7.2894    2.4532   -9.6065 H   0  0  0  0  0  0  0  0  0  0  0  0
   -7.0089    3.8385   -8.5297 H   0  0  0  0  0  0  0  0  0  0  0  0
   -6.8225    2.1718   -7.9382 H   0  0  0  0  0  0  0  0  0  0  0  0
   -8.2242    7.7879  -14.8122 H   0  0  0  0  0  0  0  0  0  0  0  0
  1  2  1  0  0  0  0
  1  4  2  0  0  0  0
  2 19  2  0  0  0  0
  3  5  2  0  0  0  0
  3 19  1  0  0  0  0
  4  5  1  0  0  0  0
  4 13  1  0  0  0  0
  5 24  1  0  0  0  0
  6 20  1  0  0  0  0
  6 21  2  0  0  0  0
  6 23  1  0  0  0  0
  7  9  1  0  0  0  0
  7 13  1  0  0  0  0
  8 10  1  0  0  0  0
  8 13  1  0  0  0  0
  9 14  1  0  0  0  0
 10 14  1  0  0  0  0
 11 14  1  0  0  0  0
 11 20  1  0  0  0  0
 12 14  1  0  0  0  0
 12 20  1  0  0  0  0
 13 22  1  0  0  0  0
 15 18  1  0  0  0  0
 16 18  1  0  0  0  0
 17 18  1  0  0  0  0
 18 23  1  0  0  0  0
  1 25  1  0  0  0  0
  2 26  1  0  0  0  0
  3 27  1  0  0  0  0
  7 28  1  0  0  0  0
  7 29  1  0  0  0  0
  8 30  1  0  0  0  0
  8 31  1  0  0  0  0
  9 32  1  0  0  0  0
  9 33  1  0  0  0  0
 10 34  1  0  0  0  0
 10 35  1  0  0  0  0
 11 36  1  0  0  0  0
 11 37  1  0  0  0  0
 12 38  1  0  0  0  0
 12 39  1  0  0  0  0
 15 40  1  0  0  0  0
 15 41  1  0  0  0  0
 15 42  1  0  0  0  0
 16 43  1  0  0  0  0
 16 44  1  0  0  0  0
 16 45  1  0  0  0  0
 17 46  1  0  0  0  0
 17 47  1  0  0  0  0
 17 48  1  0  0  0  0
 22 49  1  0  0  0  0
M  END
> <id>
EN300-7428881

> <smiles>
CC(C)(C)OC(=O)N1CC2(C1)CCC(O)(CC2)C=3C=CN=CC3Br

> <IUPAC Name>
tert-butyl 7-(3-bromopyridin-4-yl)-7-hydroxy-2-azaspiro[3.5]nonane-2-carboxylate

> <CAS>
2309448-75-5

> <URL>
https://www.enaminestore.com/catalog/EN300-7428881

> <ROCS_ShapeQuery>
_x0404_0B

> <ROCS_TanimotoCombo>
0.437 

> <ROCS_ShapeTanimoto>
0.383 

> <ROCS_ColorTanimoto>
0.055 

> <ROCS_RefTversky>
0.333 

> <ROCS_RefColorTversky>
0.061 

> <ROCS_RefTverskyCombo>
0.394 

> <ROCS_FitTversky>
1.638 

> <ROCS_FitColorTversky>
0.356 

> <ROCS_FitTverskyCombo>
1.994 

> <ROCS_ColorScore>
-4.395

> <ROCS_Overlap>
2224.143

> <ROCS_Rank>
265                 

$$$$
untitled-dbase-87289_39
  -OEChem-08222312023D

 39 41  0     1  0  0  0  0  0999 V2000
   -9.3321    2.2289   -8.0039 C   0  0  0  0  0  0  0  0  0  0  0  0
   -9.3567    3.5294   -7.4574 C   0  0  0  0  0  0  0  0  0  0  0  0
   -9.0900    2.0236   -9.3654 C   0  0  0  0  0  0  0  0  0  0  0  0
   -9.1399    4.6530   -8.2604 C   0  0  0  0  0  0  0  0  0  0  0  0
   -8.8755    3.1445  -10.1394 C   0  0  0  0  0  0  0  0  0  0  0  0
   -8.9000    4.4288   -9.5997 C   0  0  0  0  0  0  0  0  0  0  0  0
   -8.6092    3.2615  -11.5767 C   0  0  0  0  0  0  0  0  0  0  0  0
   -8.6499    5.3820  -10.6857 C   0  0  0  0  0  0  0  0  0  0  0  0
   -8.7801    5.9708  -15.0626 C   0  0  0  0  0  0  0  0  0  0  0  0
   -9.2130    5.4151  -13.7599 C   0  0  0  0  0  0  0  0  0  0  0  0
   -9.9257    3.6652  -17.6098 C   0  0  0  0  0  0  0  0  0  0  0  0
   -8.8837    3.8841  -18.7070 C   0  0  0  0  0  0  0  0  0  0  0  0
   -9.3026    3.7842  -16.2218 C   0  0  0  0  0  0  0  0  0  0  0  0
   -7.5570    5.3043  -17.0980 C   0  0  0  0  0  0  0  0  0  0  0  0
   -8.1492    5.2195  -18.5106 C   0  0  1  0  0  0  0  0  0  0  0  0
   -7.0616    5.4010  -19.5660 C   0  0  0  0  0  0  0  0  0  0  0  0
   -8.4515    4.5970  -11.7781 N   0  0  0  0  0  0  0  0  0  0  0  0
   -8.5816    5.0537  -16.0845 N   0  0  0  0  0  0  0  0  0  0  0  0
   -8.5410    2.3275  -12.3512 O   0  0  0  0  0  0  0  0  0  0  0  0
   -8.6231    6.5904  -10.5598 O   0  0  0  0  0  0  0  0  0  0  0  0
   -8.6442    7.1867  -15.0987 O   0  0  0  0  0  0  0  0  0  0  0  0
  -10.3793    5.2684  -13.4612 O   0  0  0  0  0  0  0  0  0  0  0  0
   -8.1047    5.1330  -13.0380 O   0  0  0  0  0  0  0  0  0  0  0  0
   -9.5055    1.3749   -7.3542 H   0  0  0  0  0  0  0  0  0  0  0  0
   -9.5489    3.6571   -6.3951 H   0  0  0  0  0  0  0  0  0  0  0  0
   -9.0739    1.0245   -9.7845 H   0  0  0  0  0  0  0  0  0  0  0  0
   -9.1619    5.6514   -7.8402 H   0  0  0  0  0  0  0  0  0  0  0  0
  -10.7321    4.4015  -17.7149 H   0  0  0  0  0  0  0  0  0  0  0  0
  -10.3786    2.6743  -17.7269 H   0  0  0  0  0  0  0  0  0  0  0  0
   -8.1645    3.0552  -18.6941 H   0  0  0  0  0  0  0  0  0  0  0  0
   -9.3759    3.8655  -19.6864 H   0  0  0  0  0  0  0  0  0  0  0  0
  -10.0804    3.6780  -15.4617 H   0  0  0  0  0  0  0  0  0  0  0  0
   -8.5754    2.9799  -16.0591 H   0  0  0  0  0  0  0  0  0  0  0  0
   -6.7716    4.5514  -16.9572 H   0  0  0  0  0  0  0  0  0  0  0  0
   -7.0987    6.2867  -16.9394 H   0  0  0  0  0  0  0  0  0  0  0  0
   -8.8745    6.0358  -18.6310 H   0  0  0  0  0  0  0  0  0  0  0  0
   -6.3226    4.6063  -19.4759 H   0  0  0  0  0  0  0  0  0  0  0  0
   -6.5692    6.3624  -19.4280 H   0  0  0  0  0  0  0  0  0  0  0  0
   -7.5026    5.3661  -20.5612 H   0  0  0  0  0  0  0  0  0  0  0  0
  1  2  2  0  0  0  0
  1  3  1  0  0  0  0
  2  4  1  0  0  0  0
  3  5  2  0  0  0  0
  4  6  2  0  0  0  0
  5  6  1  0  0  0  0
  5  7  1  0  0  0  0
  6  8  1  0  0  0  0
  7 17  1  0  0  0  0
  7 19  2  0  0  0  0
  8 17  1  0  0  0  0
  8 20  2  0  0  0  0
  9 10  1  0  0  0  0
  9 18  1  0  0  0  0
  9 21  2  0  0  0  0
 10 22  2  0  0  0  0
 10 23  1  0  0  0  0
 11 12  1  0  0  0  0
 11 13  1  0  0  0  0
 12 15  1  0  0  0  0
 13 18  1  0  0  0  0
 14 15  1  0  0  0  0
 14 18  1  0  0  0  0
 15 16  1  0  0  0  0
 17 23  1  0  0  0  0
  1 24  1  0  0  0  0
  2 25  1  0  0  0  0
  3 26  1  0  0  0  0
  4 27  1  0  0  0  0
 11 28  1  0  0  0  0
 11 29  1  0  0  0  0
 12 30  1  0  0  0  0
 12 31  1  0  0  0  0
 13 32  1  0  0  0  0
 13 33  1  0  0  0  0
 14 34  1  0  0  0  0
 14 35  1  0  0  0  0
 15 36  1  0  0  0  0
 16 37  1  0  0  0  0
 16 38  1  0  0  0  0
 16 39  1  0  0  0  0
M  END
> <id>
EN300-6515342

> <smiles>
CC1CCCN(C1)C(=O)C(=O)ON2C(=O)C=3C=CC=CC3C2=O

> <IUPAC Name>
1,3-dioxo-2,3-dihydro-1H-isoindol-2-yl 2-(3-methylpiperidin-1-yl)-2-oxoacetate

> <CAS>
2248410-93-5

> <URL>
https://www.enaminestore.com/catalog/EN300-6515342

> <ROCS_ShapeQuery>
_x0404_0B

> <ROCS_TanimotoCombo>
0.437 

> <ROCS_ShapeTanimoto>
0.373 

> <ROCS_ColorTanimoto>
0.064 

> <ROCS_RefTversky>
0.327 

> <ROCS_RefColorTversky>
0.069 

> <ROCS_RefTverskyCombo>
0.396 

> <ROCS_FitTversky>
1.609 

> <ROCS_FitColorTversky>
0.477 

> <ROCS_FitTverskyCombo>
2.087 

> <ROCS_ColorScore>
-4.988

> <ROCS_Overlap>
2183.833

> <ROCS_Rank>
266                 

$$$$
untitled-dbase-154064_130
  -OEChem-08222312023D

 50 51  0     1  0  0  0  0  0999 V2000
   -7.6246    5.2460  -16.4522 C   0  0  0  0  0  0  0  0  0  0  0  0
   -8.9648    5.0072   -8.7451 C   0  0  0  0  0  0  0  0  0  0  0  0
   -8.1053    6.8245  -11.7674 C   0  0  0  0  0  0  0  0  0  0  0  0
   -8.6059    4.4463  -12.3634 C   0  0  0  0  0  0  0  0  0  0  0  0
   -9.0241    6.7001  -10.5550 C   0  0  0  0  0  0  0  0  0  0  0  0
   -9.4891    4.3285  -11.1204 C   0  0  0  0  0  0  0  0  0  0  0  0
   -9.6923    5.6282  -15.0297 C   0  0  0  0  0  0  0  0  0  0  0  0
   -7.5057    5.9492  -14.0723 C   0  0  0  0  0  0  0  0  0  0  0  0
   -9.8505    6.2906  -13.6525 C   0  0  1  0  0  0  0  0  0  0  0  0
   -8.5279    5.8955  -12.9207 C   0  0  0  0  0  0  0  0  0  0  0  0
  -10.0214    3.9687   -6.2961 C   0  0  0  0  0  0  0  0  0  0  0  0
   -9.1145    1.7542   -7.0595 C   0  0  0  0  0  0  0  0  0  0  0  0
   -7.5461    3.6707   -6.6406 C   0  0  0  0  0  0  0  0  0  0  0  0
  -10.0714    7.7970  -13.8278 C   0  0  0  0  0  0  0  0  0  0  0  0
   -8.5396    4.9050  -17.6009 C   0  0  0  0  0  0  0  0  0  0  0  0
   -8.9406    3.2703   -7.1200 C   0  0  0  0  0  0  0  0  0  0  0  0
   -8.2535    5.5817  -15.2662 N   0  0  0  0  0  0  0  0  0  0  0  0
   -9.1185    5.3140  -10.1016 N   0  0  0  0  0  0  0  0  0  0  0  0
   -6.4017    5.2216  -16.6013 O   0  0  0  0  0  0  0  0  0  0  0  0
   -8.7481    5.8400   -7.8665 O   0  0  0  0  0  0  0  0  0  0  0  0
  -11.4266    8.0199  -14.1766 O   0  0  0  0  0  0  0  0  0  0  0  0
   -9.0835    3.6668   -8.4888 O   0  0  0  0  0  0  0  0  0  0  0  0
   -9.8271    5.0003  -17.2236 F   0  0  0  0  0  0  0  0  0  0  0  0
   -8.3391    5.7447  -18.6322 F   0  0  0  0  0  0  0  0  0  0  0  0
   -8.3178    3.6497  -18.0303 F   0  0  0  0  0  0  0  0  0  0  0  0
   -8.1400    7.8684  -12.0963 H   0  0  0  0  0  0  0  0  0  0  0  0
   -7.0759    6.6243  -11.4547 H   0  0  0  0  0  0  0  0  0  0  0  0
   -7.5991    4.0786  -12.1240 H   0  0  0  0  0  0  0  0  0  0  0  0
   -8.9991    3.7767  -13.1406 H   0  0  0  0  0  0  0  0  0  0  0  0
   -8.6500    7.2910   -9.7118 H   0  0  0  0  0  0  0  0  0  0  0  0
  -10.0093    7.1028  -10.8085 H   0  0  0  0  0  0  0  0  0  0  0  0
  -10.5402    4.4471  -11.4049 H   0  0  0  0  0  0  0  0  0  0  0  0
   -9.3897    3.3363  -10.6642 H   0  0  0  0  0  0  0  0  0  0  0  0
  -10.1193    4.6194  -15.0530 H   0  0  0  0  0  0  0  0  0  0  0  0
  -10.1482    6.2192  -15.8335 H   0  0  0  0  0  0  0  0  0  0  0  0
   -7.0226    6.9205  -14.2160 H   0  0  0  0  0  0  0  0  0  0  0  0
   -6.7150    5.1972  -13.9529 H   0  0  0  0  0  0  0  0  0  0  0  0
  -10.6912    5.8723  -13.1511 H   0  0  0  0  0  0  0  0  0  0  0  0
   -9.9001    5.0571   -6.3369 H   0  0  0  0  0  0  0  0  0  0  0  0
  -11.0257    3.7172   -6.6522 H   0  0  0  0  0  0  0  0  0  0  0  0
   -9.9490    3.6890   -5.2388 H   0  0  0  0  0  0  0  0  0  0  0  0
   -8.3411    1.2490   -7.6493 H   0  0  0  0  0  0  0  0  0  0  0  0
  -10.0765    1.4542   -7.4905 H   0  0  0  0  0  0  0  0  0  0  0  0
   -9.0643    1.3825   -6.0310 H   0  0  0  0  0  0  0  0  0  0  0  0
   -6.7707    3.1698   -7.2314 H   0  0  0  0  0  0  0  0  0  0  0  0
   -7.3903    4.7520   -6.7116 H   0  0  0  0  0  0  0  0  0  0  0  0
   -7.3887    3.3638   -5.6002 H   0  0  0  0  0  0  0  0  0  0  0  0
   -9.4295    8.1808  -14.6224 H   0  0  0  0  0  0  0  0  0  0  0  0
   -9.8509    8.3201  -12.8958 H   0  0  0  0  0  0  0  0  0  0  0  0
  -11.9687    7.6699  -13.4495 H   0  0  0  0  0  0  0  0  0  0  0  0
  1 15  1  0  0  0  0
  1 17  1  0  0  0  0
  1 19  2  0  0  0  0
  2 18  1  0  0  0  0
  2 20  2  0  0  0  0
  2 22  1  0  0  0  0
  3  5  1  0  0  0  0
  3 10  1  0  0  0  0
  4  6  1  0  0  0  0
  4 10  1  0  0  0  0
  5 18  1  0  0  0  0
  6 18  1  0  0  0  0
  7  9  1  0  0  0  0
  7 17  1  0  0  0  0
  8 10  1  0  0  0  0
  8 17  1  0  0  0  0
  9 10  1  0  0  0  0
  9 14  1  0  0  0  0
 11 16  1  0  0  0  0
 12 16  1  0  0  0  0
 13 16  1  0  0  0  0
 14 21  1  0  0  0  0
 15 23  1  0  0  0  0
 15 24  1  0  0  0  0
 15 25  1  0  0  0  0
 16 22  1  0  0  0  0
  3 26  1  0  0  0  0
  3 27  1  0  0  0  0
  4 28  1  0  0  0  0
  4 29  1  0  0  0  0
  5 30  1  0  0  0  0
  5 31  1  0  0  0  0
  6 32  1  0  0  0  0
  6 33  1  0  0  0  0
  7 34  1  0  0  0  0
  7 35  1  0  0  0  0
  8 36  1  0  0  0  0
  8 37  1  0  0  0  0
  9 38  1  0  0  0  0
 11 39  1  0  0  0  0
 11 40  1  0  0  0  0
 11 41  1  0  0  0  0
 12 42  1  0  0  0  0
 12 43  1  0  0  0  0
 12 44  1  0  0  0  0
 13 45  1  0  0  0  0
 13 46  1  0  0  0  0
 13 47  1  0  0  0  0
 14 48  1  0  0  0  0
 14 49  1  0  0  0  0
 21 50  1  0  0  0  0
M  END
> <id>
EN300-28308825

> <smiles>
CC(C)(C)OC(=O)N1CCC2(CN(CC2CO)C(=O)C(F)(F)F)CC1

> <IUPAC Name>
tert-butyl 4-(hydroxymethyl)-2-(2,2,2-trifluoroacetyl)-2,8-diazaspiro[4.5]decane-8-carboxylate

> <CAS>
2680672-24-4

> <URL>
https://www.enaminestore.com/catalog/EN300-28308825

> <ROCS_ShapeQuery>
_x0404_0B

> <ROCS_TanimotoCombo>
0.437 

> <ROCS_ShapeTanimoto>
0.379 

> <ROCS_ColorTanimoto>
0.058 

> <ROCS_RefTversky>
0.333 

> <ROCS_RefColorTversky>
0.063 

> <ROCS_RefTverskyCombo>
0.396 

> <ROCS_FitTversky>
1.579 

> <ROCS_FitColorTversky>
0.438 

> <ROCS_FitTverskyCombo>
2.016 

> <ROCS_ColorScore>
-4.564

> <ROCS_Overlap>
2222.771

> <ROCS_Rank>
267                 

$$$$
untitled-dbase-6252_8
  -OEChem-08222312023D

 40 42  0     0  0  0  0  0  0999 V2000
   -8.9638    5.7096   -9.0443 C   0  0  0  0  0  0  0  0  0  0  0  0
   -7.2705    6.0543  -15.9075 C   0  0  0  0  0  0  0  0  0  0  0  0
   -9.5073    5.2127  -15.5535 C   0  0  0  0  0  0  0  0  0  0  0  0
   -7.2149    5.3910  -17.1333 C   0  0  0  0  0  0  0  0  0  0  0  0
   -9.4517    4.5494  -16.7793 C   0  0  0  0  0  0  0  0  0  0  0  0
   -9.1138    4.4841   -8.3907 C   0  0  0  0  0  0  0  0  0  0  0  0
   -9.0241    3.2672  -10.5093 C   0  0  0  0  0  0  0  0  0  0  0  0
   -8.8478    5.6739  -10.4175 C   0  0  0  0  0  0  0  0  0  0  0  0
   -8.4167    5.9651  -15.1176 C   0  0  0  0  0  0  0  0  0  0  0  0
   -8.3055    4.6386  -17.5692 C   0  0  0  0  0  0  0  0  0  0  0  0
   -8.8765    4.4833  -11.1411 C   0  0  0  0  0  0  0  0  0  0  0  0
   -9.1435    3.2751   -9.1156 C   0  0  0  0  0  0  0  0  0  0  0  0
   -8.6810    6.7592  -11.3758 C   0  0  0  0  0  0  0  0  0  0  0  0
   -8.6226    6.0470  -12.6750 C   0  0  0  0  0  0  0  0  0  0  0  0
   -8.4740    6.6472  -13.8567 C   0  0  0  0  0  0  0  0  0  0  0  0
   -6.8780    4.1713  -19.5915 C   0  0  0  0  0  0  0  0  0  0  0  0
   -9.3693    4.4288  -19.8432 C   0  0  0  0  0  0  0  0  0  0  0  0
   -8.4138    2.3772  -18.8141 C   0  0  0  0  0  0  0  0  0  0  0  0
   -8.2462    3.9316  -18.8809 C   0  0  0  0  0  0  0  0  0  0  0  0
   -8.6093    7.9457  -11.1504 O   0  0  0  0  0  0  0  0  0  0  0  0
   -8.7440    4.6739  -12.4972 O   0  0  0  0  0  0  0  0  0  0  0  0
   -9.2908    2.0970   -8.4453 O   0  0  0  0  0  0  0  0  0  0  0  0
   -8.9406    6.6400   -8.4896 H   0  0  0  0  0  0  0  0  0  0  0  0
   -6.4122    6.6368  -15.5810 H   0  0  0  0  0  0  0  0  0  0  0  0
  -10.4078    5.1340  -14.9491 H   0  0  0  0  0  0  0  0  0  0  0  0
   -6.3180    5.4665  -17.7424 H   0  0  0  0  0  0  0  0  0  0  0  0
  -10.3060    3.9652  -17.1114 H   0  0  0  0  0  0  0  0  0  0  0  0
   -9.2073    4.4662   -7.3074 H   0  0  0  0  0  0  0  0  0  0  0  0
   -9.0471    2.3395  -11.0701 H   0  0  0  0  0  0  0  0  0  0  0  0
   -8.3615    7.7318  -13.8622 H   0  0  0  0  0  0  0  0  0  0  0  0
   -6.8083    3.6616  -20.5596 H   0  0  0  0  0  0  0  0  0  0  0  0
   -6.7038    5.2367  -19.7777 H   0  0  0  0  0  0  0  0  0  0  0  0
   -6.0558    3.8084  -18.9633 H   0  0  0  0  0  0  0  0  0  0  0  0
   -9.3290    3.9117  -20.8080 H   0  0  0  0  0  0  0  0  0  0  0  0
  -10.3755    4.2713  -19.4373 H   0  0  0  0  0  0  0  0  0  0  0  0
   -9.2530    5.5012  -20.0396 H   0  0  0  0  0  0  0  0  0  0  0  0
   -8.3630    1.9037  -19.8021 H   0  0  0  0  0  0  0  0  0  0  0  0
   -7.6253    1.9259  -18.2004 H   0  0  0  0  0  0  0  0  0  0  0  0
   -9.3827    2.1079  -18.3777 H   0  0  0  0  0  0  0  0  0  0  0  0
   -9.3602    2.2615   -7.4922 H   0  0  0  0  0  0  0  0  0  0  0  0
  1  6  1  0  0  0  0
  1  8  2  0  0  0  0
  2  4  1  0  0  0  0
  2  9  2  0  0  0  0
  3  5  2  0  0  0  0
  3  9  1  0  0  0  0
  4 10  2  0  0  0  0
  5 10  1  0  0  0  0
  6 12  2  0  0  0  0
  7 11  2  0  0  0  0
  7 12  1  0  0  0  0
  8 11  1  0  0  0  0
  8 13  1  0  0  0  0
  9 15  1  0  0  0  0
 10 19  1  0  0  0  0
 11 21  1  0  0  0  0
 12 22  1  0  0  0  0
 13 14  1  0  0  0  0
 13 20  2  0  0  0  0
 14 15  2  3  0  0  0
 14 21  1  0  0  0  0
 16 19  1  0  0  0  0
 17 19  1  0  0  0  0
 18 19  1  0  0  0  0
  1 23  1  0  0  0  0
  2 24  1  0  0  0  0
  3 25  1  0  0  0  0
  4 26  1  0  0  0  0
  5 27  1  0  0  0  0
  6 28  1  0  0  0  0
  7 29  1  0  0  0  0
 15 30  1  0  0  0  0
 16 31  1  0  0  0  0
 16 32  1  0  0  0  0
 16 33  1  0  0  0  0
 17 34  1  0  0  0  0
 17 35  1  0  0  0  0
 17 36  1  0  0  0  0
 18 37  1  0  0  0  0
 18 38  1  0  0  0  0
 18 39  1  0  0  0  0
 22 40  1  0  0  0  0
M  END
> <id>
EN300-36360

> <smiles>
CC(C)(C)C=1C=CC(C=C2OC=3C=C(O)C=CC3C2=O)=CC1

> <IUPAC Name>
2-[(4-tert-butylphenyl)methylidene]-6-hydroxy-2,3-dihydro-1-benzofuran-3-one

> <CAS>
620545-95-1

> <URL>
https://www.enaminestore.com/catalog/EN300-36360

> <ROCS_ShapeQuery>
_x0404_0B

> <ROCS_TanimotoCombo>
0.437 

> <ROCS_ShapeTanimoto>
0.363 

> <ROCS_ColorTanimoto>
0.074 

> <ROCS_RefTversky>
0.318 

> <ROCS_RefColorTversky>
0.080 

> <ROCS_RefTverskyCombo>
0.398 

> <ROCS_FitTversky>
1.632 

> <ROCS_FitColorTversky>
0.506 

> <ROCS_FitTverskyCombo>
2.138 

> <ROCS_ColorScore>
-5.769

> <ROCS_Overlap>
2125.786

> <ROCS_Rank>
268                 

$$$$
untitled-dbase-160875_334
  -OEChem-08222312023D

 48 50  0     0  0  0  0  0  0999 V2000
   -8.8418    2.9344   -9.7164 C   0  0  0  0  0  0  0  0  0  0  0  0
   -9.0352    2.2059   -8.5609 C   0  0  0  0  0  0  0  0  0  0  0  0
   -8.8962    4.3030   -9.3466 C   0  0  0  0  0  0  0  0  0  0  0  0
   -9.1313    4.2837   -7.9872 C   0  0  0  0  0  0  0  0  0  0  0  0
   -8.5562    5.4850  -15.1622 C   0  0  0  0  0  0  0  0  0  0  0  0
   -9.2683    5.4478   -7.0938 C   0  0  0  0  0  0  0  0  0  0  0  0
   -9.9375    5.8398  -12.4465 C   0  0  0  0  0  0  0  0  0  0  0  0
   -7.6607    4.7528  -12.3203 C   0  0  0  0  0  0  0  0  0  0  0  0
  -10.0830    5.9095  -10.9221 C   0  0  0  0  0  0  0  0  0  0  0  0
   -7.5438    5.6125  -11.0554 C   0  0  0  0  0  0  0  0  0  0  0  0
   -9.4663    6.6934   -7.9745 C   0  0  0  0  0  0  0  0  0  0  0  0
   -9.0839    4.6547  -12.8753 C   0  0  0  0  0  0  0  0  0  0  0  0
   -8.7820    5.6000  -10.1277 C   0  0  0  0  0  0  0  0  0  0  0  0
   -6.3108    5.0816  -16.8784 C   0  0  0  0  0  0  0  0  0  0  0  0
   -7.9911    4.9630  -18.7417 C   0  0  0  0  0  0  0  0  0  0  0  0
   -7.7559    7.0746  -17.4023 C   0  0  0  0  0  0  0  0  0  0  0  0
   -7.6816    5.5488  -17.3658 C   0  0  0  0  0  0  0  0  0  0  0  0
   -8.5525    6.7069   -9.1354 N   0  0  0  0  0  0  0  0  0  0  0  0
   -9.0608    4.5227  -14.3123 N   0  0  0  0  0  0  0  0  0  0  0  0
   -8.0699    6.5581  -14.8206 O   0  0  0  0  0  0  0  0  0  0  0  0
   -9.2123    3.0296   -7.4933 O   0  0  0  0  0  0  0  0  0  0  0  0
   -8.6773    5.0655  -16.4571 O   0  0  0  0  0  0  0  0  0  0  0  0
   -8.6790    2.5234  -10.7047 H   0  0  0  0  0  0  0  0  0  0  0  0
   -9.0694    1.1483   -8.3443 H   0  0  0  0  0  0  0  0  0  0  0  0
  -10.1390    5.3051   -6.4435 H   0  0  0  0  0  0  0  0  0  0  0  0
   -8.3839    5.5678   -6.4600 H   0  0  0  0  0  0  0  0  0  0  0  0
  -10.9389    5.7628  -12.8919 H   0  0  0  0  0  0  0  0  0  0  0  0
   -9.5032    6.7786  -12.8174 H   0  0  0  0  0  0  0  0  0  0  0  0
   -6.9779    5.1506  -13.0973 H   0  0  0  0  0  0  0  0  0  0  0  0
   -7.2813    3.7376  -12.0911 H   0  0  0  0  0  0  0  0  0  0  0  0
  -10.4760    6.9041  -10.6431 H   0  0  0  0  0  0  0  0  0  0  0  0
  -10.8752    5.1991  -10.6232 H   0  0  0  0  0  0  0  0  0  0  0  0
   -6.6584    5.2626  -10.4858 H   0  0  0  0  0  0  0  0  0  0  0  0
   -7.2787    6.6465  -11.3517 H   0  0  0  0  0  0  0  0  0  0  0  0
  -10.4981    6.7160   -8.3380 H   0  0  0  0  0  0  0  0  0  0  0  0
   -9.3303    7.6041   -7.3831 H   0  0  0  0  0  0  0  0  0  0  0  0
   -9.5438    3.7275  -12.4991 H   0  0  0  0  0  0  0  0  0  0  0  0
   -6.0849    5.5000  -15.8911 H   0  0  0  0  0  0  0  0  0  0  0  0
   -6.2560    3.9900  -16.8144 H   0  0  0  0  0  0  0  0  0  0  0  0
   -5.5176    5.4291  -17.5502 H   0  0  0  0  0  0  0  0  0  0  0  0
   -8.9737    5.2956  -19.0953 H   0  0  0  0  0  0  0  0  0  0  0  0
   -8.0324    3.8686  -18.6996 H   0  0  0  0  0  0  0  0  0  0  0  0
   -7.2394    5.2533  -19.4828 H   0  0  0  0  0  0  0  0  0  0  0  0
   -8.7390    7.4100  -17.7518 H   0  0  0  0  0  0  0  0  0  0  0  0
   -7.5727    7.5110  -16.4151 H   0  0  0  0  0  0  0  0  0  0  0  0
   -7.0216    7.4837  -18.1056 H   0  0  0  0  0  0  0  0  0  0  0  0
   -8.6550    7.6022   -9.6123 H   0  0  0  0  0  0  0  0  0  0  0  0
   -9.4377    3.6727  -14.7212 H   0  0  0  0  0  0  0  0  0  0  0  0
  1  2  2  0  0  0  0
  1  3  1  0  0  0  0
  2 21  1  0  0  0  0
  3  4  2  0  0  0  0
  3 13  1  0  0  0  0
  4  6  1  0  0  0  0
  4 21  1  0  0  0  0
  5 19  1  0  0  0  0
  5 20  2  0  0  0  0
  5 22  1  0  0  0  0
  6 11  1  0  0  0  0
  7  9  1  0  0  0  0
  7 12  1  0  0  0  0
  8 10  1  0  0  0  0
  8 12  1  0  0  0  0
  9 13  1  0  0  0  0
 10 13  1  0  0  0  0
 11 18  1  0  0  0  0
 12 19  1  0  0  0  0
 13 18  1  0  0  0  0
 14 17  1  0  0  0  0
 15 17  1  0  0  0  0
 16 17  1  0  0  0  0
 17 22  1  0  0  0  0
  1 23  1  0  0  0  0
  2 24  1  0  0  0  0
  6 25  1  0  0  0  0
  6 26  1  0  0  0  0
  7 27  1  0  0  0  0
  7 28  1  0  0  0  0
  8 29  1  0  0  0  0
  8 30  1  0  0  0  0
  9 31  1  0  0  0  0
  9 32  1  0  0  0  0
 10 33  1  0  0  0  0
 10 34  1  0  0  0  0
 11 35  1  0  0  0  0
 11 36  1  0  0  0  0
 12 37  1  0  0  0  0
 14 38  1  0  0  0  0
 14 39  1  0  0  0  0
 14 40  1  0  0  0  0
 15 41  1  0  0  0  0
 15 42  1  0  0  0  0
 15 43  1  0  0  0  0
 16 44  1  0  0  0  0
 16 45  1  0  0  0  0
 16 46  1  0  0  0  0
 18 47  1  0  0  0  0
 19 48  1  0  0  0  0
M  END
> <id>
EN300-1076962

> <smiles>
CC(C)(C)OC(=O)NC1CCC2(CC1)NCCC=3OC=CC32

> <IUPAC Name>
tert-butyl N-{6',7'-dihydro-5'H-spiro[cyclohexane-1,4'-furo[3,2-c]pyridine]-4-yl}carbamate

> <CAS>
2138387-51-4

> <URL>
https://www.enaminestore.com/catalog/EN300-1076962

> <ROCS_ShapeQuery>
_x0404_0B

> <ROCS_TanimotoCombo>
0.437 

> <ROCS_ShapeTanimoto>
0.351 

> <ROCS_ColorTanimoto>
0.086 

> <ROCS_RefTversky>
0.310 

> <ROCS_RefColorTversky>
0.093 

> <ROCS_RefTverskyCombo>
0.403 

> <ROCS_FitTversky>
1.611 

> <ROCS_FitColorTversky>
0.545 

> <ROCS_FitTverskyCombo>
2.155 

> <ROCS_ColorScore>
-6.728

> <ROCS_Overlap>
2067.321

> <ROCS_Rank>
269                 

$$$$
untitled-dbase-147017_0
  -OEChem-08222312023D

 31 33  0     0  0  0  0  0  0999 V2000
   -7.3593    5.8970  -15.1776 C   0  0  0  0  0  0  0  0  0  0  0  0
   -9.5337    4.8470  -15.2576 C   0  0  0  0  0  0  0  0  0  0  0  0
   -7.2540    5.7846  -16.5639 C   0  0  0  0  0  0  0  0  0  0  0  0
   -9.4284    4.7346  -16.6440 C   0  0  0  0  0  0  0  0  0  0  0  0
   -9.0419    3.1031  -10.4076 C   0  0  0  0  0  0  0  0  0  0  0  0
   -8.4992    5.4281  -14.5244 C   0  0  0  0  0  0  0  0  0  0  0  0
   -8.8607    5.5079  -10.2793 C   0  0  0  0  0  0  0  0  0  0  0  0
   -8.8889    4.3385  -11.0373 C   0  0  0  0  0  0  0  0  0  0  0  0
   -8.2885    5.2034  -17.2971 C   0  0  0  0  0  0  0  0  0  0  0  0
   -9.1656    3.0428   -9.0193 C   0  0  0  0  0  0  0  0  0  0  0  0
   -8.9846    5.4519   -8.8891 C   0  0  0  0  0  0  0  0  0  0  0  0
   -9.1369    4.2148   -8.2620 C   0  0  0  0  0  0  0  0  0  0  0  0
   -8.5747    6.7387  -12.4395 C   0  0  0  0  0  0  0  0  0  0  0  0
   -8.6106    5.5471  -13.0568 C   0  0  0  0  0  0  0  0  0  0  0  0
   -8.6997    6.7969  -10.9691 C   0  0  0  0  0  0  0  0  0  0  0  0
   -8.6704    7.8617  -10.3677 O   0  0  0  0  0  0  0  0  0  0  0  0
   -8.7723    4.3345  -12.4041 O   0  0  0  0  0  0  0  0  0  0  0  0
   -8.1858    5.0937  -18.6499 O   0  0  0  0  0  0  0  0  0  0  0  0
   -9.3145    1.8311   -8.4143 O   0  0  0  0  0  0  0  0  0  0  0  0
   -8.9615    6.5743   -8.1158 O   0  0  0  0  0  0  0  0  0  0  0  0
   -9.2588    4.1464   -6.9049 O   0  0  0  0  0  0  0  0  0  0  0  0
   -6.5445    6.3524  -14.6198 H   0  0  0  0  0  0  0  0  0  0  0  0
  -10.4285    4.4769  -14.7627 H   0  0  0  0  0  0  0  0  0  0  0  0
   -6.3636    6.1516  -17.0671 H   0  0  0  0  0  0  0  0  0  0  0  0
  -10.2376    4.2809  -17.2098 H   0  0  0  0  0  0  0  0  0  0  0  0
   -9.0643    2.1890  -10.9956 H   0  0  0  0  0  0  0  0  0  0  0  0
   -8.4514    7.6733  -12.9759 H   0  0  0  0  0  0  0  0  0  0  0  0
   -7.3410    5.4622  -18.9540 H   0  0  0  0  0  0  0  0  0  0  0  0
   -9.3878    1.9432   -7.4536 H   0  0  0  0  0  0  0  0  0  0  0  0
   -8.8510    7.3611   -8.6718 H   0  0  0  0  0  0  0  0  0  0  0  0
   -9.2206    5.0361   -6.5217 H   0  0  0  0  0  0  0  0  0  0  0  0
  1  3  1  0  0  0  0
  1  6  2  0  0  0  0
  2  4  2  0  0  0  0
  2  6  1  0  0  0  0
  3  9  2  0  0  0  0
  4  9  1  0  0  0  0
  5  8  2  0  0  0  0
  5 10  1  0  0  0  0
  6 14  1  0  0  0  0
  7  8  1  0  0  0  0
  7 11  2  0  0  0  0
  7 15  1  0  0  0  0
  8 17  1  0  0  0  0
  9 18  1  0  0  0  0
 10 12  2  0  0  0  0
 10 19  1  0  0  0  0
 11 12  1  0  0  0  0
 11 20  1  0  0  0  0
 12 21  1  0  0  0  0
 13 14  2  0  0  0  0
 13 15  1  0  0  0  0
 14 17  1  0  0  0  0
 15 16  2  0  0  0  0
  1 22  1  0  0  0  0
  2 23  1  0  0  0  0
  3 24  1  0  0  0  0
  4 25  1  0  0  0  0
  5 26  1  0  0  0  0
 13 27  1  0  0  0  0
 18 28  1  0  0  0  0
 19 29  1  0  0  0  0
 20 30  1  0  0  0  0
 21 31  1  0  0  0  0
M  END
> <id>
EN300-23012033

> <smiles>
OC=1C=CC(=CC1)C2=CC(=O)C=3C(O)=C(O)C(O)=CC3O2

> <MDLNUMBER>
MFCD00017692

> <IUPAC Name>
5,6,7-trihydroxy-2-(4-hydroxyphenyl)-4H-chromen-4-one

> <CAS>
529-53-3

> <URL>
https://www.enaminestore.com/catalog/EN300-23012033

> <ROCS_ShapeQuery>
_x0404_0B

> <ROCS_TanimotoCombo>
0.437 

> <ROCS_ShapeTanimoto>
0.364 

> <ROCS_ColorTanimoto>
0.073 

> <ROCS_RefTversky>
0.318 

> <ROCS_RefColorTversky>
0.083 

> <ROCS_RefTverskyCombo>
0.402 

> <ROCS_FitTversky>
1.657 

> <ROCS_FitColorTversky>
0.374 

> <ROCS_FitTverskyCombo>
2.032 

> <ROCS_ColorScore>
-6.042

> <ROCS_Overlap>
2123.531

> <ROCS_Rank>
270                 

$$$$
untitled-dbase-157492_2
  -OEChem-08222312023D

 35 38  0     1  0  0  0  0  0999 V2000
   -8.2346    3.7325  -11.3371 C   0  0  0  0  0  0  0  0  0  0  0  0
   -8.8158    6.4618  -12.0568 C   0  0  0  0  0  0  0  0  0  0  0  0
   -8.1736    4.1868  -12.6405 C   0  0  0  0  0  0  0  0  0  0  0  0
   -8.4550    5.5079  -12.9889 C   0  0  0  0  0  0  0  0  0  0  0  0
   -8.5963    4.6787  -10.3866 C   0  0  0  0  0  0  0  0  0  0  0  0
   -8.8823    6.0221  -10.7408 C   0  0  0  0  0  0  0  0  0  0  0  0
   -7.8292    3.4623  -13.8638 C   0  0  0  0  0  0  0  0  0  0  0  0
   -8.2923    5.6360  -14.4372 C   0  0  0  0  0  0  0  0  0  0  0  0
   -9.1468    5.8319   -8.4084 C   0  0  0  0  0  0  0  0  0  0  0  0
   -9.1532    5.9268  -17.9695 C   0  0  0  0  0  0  0  0  0  0  0  0
   -6.9973    5.2798  -16.8663 C   0  0  0  0  0  0  0  0  0  0  0  0
   -8.7368    4.4547   -8.9114 C   0  0  0  0  0  0  0  0  0  0  0  0
   -9.2458    6.8440   -9.5414 C   0  0  0  0  0  0  0  0  0  0  0  0
   -9.8486    4.7858  -17.2698 C   0  0  0  0  0  0  0  0  0  0  0  0
   -8.9031    3.6229  -17.0262 C   0  0  0  0  0  0  0  0  0  0  0  0
   -7.6640    4.0622  -16.2620 C   0  0  2  0  0  0  0  0  0  0  0  0
   -7.7988    6.0670  -17.6874 N   0  0  0  0  0  0  0  0  0  0  0  0
   -7.9267    4.3841  -14.8850 N   0  0  0  0  0  0  0  0  0  0  0  0
   -7.5281    2.2836  -13.8985 O   0  0  0  0  0  0  0  0  0  0  0  0
   -8.4637    6.6728  -15.0512 O   0  0  0  0  0  0  0  0  0  0  0  0
   -9.3696    6.0943   -7.2337 O   0  0  0  0  0  0  0  0  0  0  0  0
   -9.7712    6.7109  -18.6893 O   0  0  0  0  0  0  0  0  0  0  0  0
   -5.8450    5.5978  -16.5682 O   0  0  0  0  0  0  0  0  0  0  0  0
   -8.0152    2.7069  -11.0696 H   0  0  0  0  0  0  0  0  0  0  0  0
   -9.0330    7.4863  -12.3302 H   0  0  0  0  0  0  0  0  0  0  0  0
   -9.5292    3.7339   -8.6964 H   0  0  0  0  0  0  0  0  0  0  0  0
   -7.7823    4.1683   -8.4636 H   0  0  0  0  0  0  0  0  0  0  0  0
   -8.5236    7.6479   -9.3811 H   0  0  0  0  0  0  0  0  0  0  0  0
  -10.2708    7.2151   -9.6144 H   0  0  0  0  0  0  0  0  0  0  0  0
  -10.2375    5.1494  -16.3121 H   0  0  0  0  0  0  0  0  0  0  0  0
  -10.6989    4.4745  -17.8873 H   0  0  0  0  0  0  0  0  0  0  0  0
   -9.4379    2.8328  -16.4646 H   0  0  0  0  0  0  0  0  0  0  0  0
   -8.6164    3.1753  -17.9952 H   0  0  0  0  0  0  0  0  0  0  0  0
   -6.9048    3.2482  -16.2554 H   0  0  0  0  0  0  0  0  0  0  0  0
   -7.3326    6.8491  -18.1422 H   0  0  0  0  0  0  0  0  0  0  0  0
  1  3  1  0  0  0  0
  1  5  2  0  0  0  0
  2  4  1  0  0  0  0
  2  6  2  0  0  0  0
  3  4  2  0  0  0  0
  3  7  1  0  0  0  0
  4  8  1  0  0  0  0
  5  6  1  0  0  0  0
  5 12  1  0  0  0  0
  6 13  1  0  0  0  0
  7 18  1  0  0  0  0
  7 19  2  0  0  0  0
  8 18  1  0  0  0  0
  8 20  2  0  0  0  0
  9 12  1  0  0  0  0
  9 13  1  0  0  0  0
  9 21  2  0  0  0  0
 10 14  1  0  0  0  0
 10 17  1  0  0  0  0
 10 22  2  0  0  0  0
 11 16  1  0  0  0  0
 11 17  1  0  0  0  0
 11 23  2  0  0  0  0
 14 15  1  0  0  0  0
 15 16  1  0  0  0  0
 16 18  1  0  0  0  0
  1 24  1  0  0  0  0
  2 25  1  0  0  0  0
 12 26  1  0  0  0  0
 12 27  1  0  0  0  0
 13 28  1  0  0  0  0
 13 29  1  0  0  0  0
 14 30  1  0  0  0  0
 14 31  1  0  0  0  0
 15 32  1  0  0  0  0
 15 33  1  0  0  0  0
 16 34  1  0  0  0  0
 17 35  1  0  0  0  0
M  END
> <id>
EN300-39872083

> <smiles>
O=C1CC=2C=C3C(=O)N(C4CCC(=O)NC4=O)C(=O)C3=CC2C1

> <IUPAC Name>
2-(2,6-dioxopiperidin-3-yl)-1H,2H,3H,5H,6H,7H-cyclopenta[f]isoindole-1,3,6-trione

> <URL>
https://www.enaminestore.com/catalog/EN300-39872083

> <ROCS_ShapeQuery>
_x0404_0B

> <ROCS_TanimotoCombo>
0.437 

> <ROCS_ShapeTanimoto>
0.334 

> <ROCS_ColorTanimoto>
0.103 

> <ROCS_RefTversky>
0.302 

> <ROCS_RefColorTversky>
0.111 

> <ROCS_RefTverskyCombo>
0.413 

> <ROCS_FitTversky>
1.460 

> <ROCS_FitColorTversky>
0.603 

> <ROCS_FitTverskyCombo>
2.063 

> <ROCS_ColorScore>
-8.022

> <ROCS_Overlap>
2017.375

> <ROCS_Rank>
271                 

$$$$
untitled-dbase-51511_162
  -OEChem-08222312023D

 55 57  0     1  0  0  0  0  0999 V2000
   -9.4390    4.3486  -16.1892 C   0  0  0  0  0  0  0  0  0  0  0  0
   -7.1076    4.8671  -15.8256 C   0  0  0  0  0  0  0  0  0  0  0  0
   -8.1746    5.4921  -17.9011 C   0  0  0  0  0  0  0  0  0  0  0  0
   -8.3062    4.3130  -15.3762 C   0  0  0  0  0  0  0  0  0  0  0  0
   -9.3732    4.9381  -17.4517 C   0  0  0  0  0  0  0  0  0  0  0  0
   -7.0417    5.4566  -17.0881 C   0  0  0  0  0  0  0  0  0  0  0  0
   -9.1800    5.0585   -9.2480 C   0  0  0  0  0  0  0  0  0  0  0  0
   -8.8236    5.9396  -12.8233 C   0  0  0  0  0  0  0  0  0  0  0  0
   -8.8786    6.3901  -11.3688 C   0  0  0  0  0  0  0  0  0  0  0  0
   -6.1390    2.7407  -13.7605 C   0  0  0  0  0  0  0  0  0  0  0  0
   -8.6844    3.9938  -11.4521 C   0  0  0  0  0  0  0  0  0  0  0  0
   -5.8921    3.6516  -12.5676 C   0  0  0  0  0  0  0  0  0  0  0  0
   -8.3790    3.6675  -13.9932 C   0  0  2  0  0  0  0  0  0  0  0  0
   -8.1039    4.5749  -12.7626 C   0  0  1  0  0  0  0  0  0  0  0  0
  -10.5844    4.9767  -18.3214 C   0  0  0  0  0  0  0  0  0  0  0  0
   -5.7598    6.0489  -17.5683 C   0  0  0  0  0  0  0  0  0  0  0  0
   -9.9803    4.4022   -6.5839 C   0  0  0  0  0  0  0  0  0  0  0  0
  -10.3154    2.0706   -7.4558 C   0  0  0  0  0  0  0  0  0  0  0  0
   -8.0272    3.1051   -7.4990 C   0  0  0  0  0  0  0  0  0  0  0  0
   -9.5277    3.3692   -7.6148 C   0  0  0  0  0  0  0  0  0  0  0  0
   -7.5607    2.4449  -13.9059 N   0  0  0  0  0  0  0  0  0  0  0  0
   -8.9281    5.1542  -10.6061 N   0  0  0  0  0  0  0  0  0  0  0  0
   -8.8852    5.9250   -8.4279 O   0  0  0  0  0  0  0  0  0  0  0  0
   -6.6964    4.8289  -12.6185 O   0  0  0  0  0  0  0  0  0  0  0  0
   -9.8007    3.8818   -8.9236 O   0  0  0  0  0  0  0  0  0  0  0  0
  -10.3738    3.9165  -15.8395 H   0  0  0  0  0  0  0  0  0  0  0  0
   -6.2243    4.8393  -15.1916 H   0  0  0  0  0  0  0  0  0  0  0  0
   -8.1230    5.9517  -18.8853 H   0  0  0  0  0  0  0  0  0  0  0  0
   -9.8482    5.8293  -13.2057 H   0  0  0  0  0  0  0  0  0  0  0  0
   -8.3179    6.6902  -13.4406 H   0  0  0  0  0  0  0  0  0  0  0  0
   -7.9703    6.9297  -11.0749 H   0  0  0  0  0  0  0  0  0  0  0  0
   -9.7469    7.0192  -11.1461 H   0  0  0  0  0  0  0  0  0  0  0  0
   -5.7647    3.2132  -14.6773 H   0  0  0  0  0  0  0  0  0  0  0  0
   -5.5847    1.7998  -13.6380 H   0  0  0  0  0  0  0  0  0  0  0  0
   -9.6497    3.4951  -11.5991 H   0  0  0  0  0  0  0  0  0  0  0  0
   -7.9978    3.3043  -10.9466 H   0  0  0  0  0  0  0  0  0  0  0  0
   -6.1538    3.1199  -11.6425 H   0  0  0  0  0  0  0  0  0  0  0  0
   -4.8308    3.9205  -12.4759 H   0  0  0  0  0  0  0  0  0  0  0  0
   -9.4608    3.3128  -13.9088 H   0  0  0  0  0  0  0  0  0  0  0  0
  -11.1592    5.8921  -18.1350 H   0  0  0  0  0  0  0  0  0  0  0  0
  -10.3126    4.9469  -19.3845 H   0  0  0  0  0  0  0  0  0  0  0  0
  -11.2358    4.1128  -18.1357 H   0  0  0  0  0  0  0  0  0  0  0  0
   -5.1666    5.2951  -18.1002 H   0  0  0  0  0  0  0  0  0  0  0  0
   -5.9403    6.8923  -18.2472 H   0  0  0  0  0  0  0  0  0  0  0  0
   -5.1623    6.4360  -16.7327 H   0  0  0  0  0  0  0  0  0  0  0  0
   -9.4172    5.3359   -6.6947 H   0  0  0  0  0  0  0  0  0  0  0  0
  -11.0477    4.6265   -6.6793 H   0  0  0  0  0  0  0  0  0  0  0  0
   -9.7911    4.0463   -5.5647 H   0  0  0  0  0  0  0  0  0  0  0  0
   -9.9940    1.3265   -8.1935 H   0  0  0  0  0  0  0  0  0  0  0  0
  -11.3841    2.2382   -7.6320 H   0  0  0  0  0  0  0  0  0  0  0  0
  -10.1918    1.6430   -6.4556 H   0  0  0  0  0  0  0  0  0  0  0  0
   -7.7023    2.3641   -8.2384 H   0  0  0  0  0  0  0  0  0  0  0  0
   -7.4440    4.0198   -7.6472 H   0  0  0  0  0  0  0  0  0  0  0  0
   -7.7794    2.6897   -6.5155 H   0  0  0  0  0  0  0  0  0  0  0  0
   -7.6967    1.8886  -14.7610 H   0  0  0  0  0  0  0  0  0  0  0  0
  1  4  1  0  0  0  0
  1  5  2  0  0  0  0
  2  4  2  0  0  0  0
  2  6  1  0  0  0  0
  3  5  1  0  0  0  0
  3  6  2  0  0  0  0
  4 13  1  0  0  0  0
  5 15  1  0  0  0  0
  6 16  1  0  0  0  0
  7 22  1  0  0  0  0
  7 23  2  0  0  0  0
  7 25  1  0  0  0  0
  8  9  1  0  0  0  0
  8 14  1  0  0  0  0
  9 22  1  0  0  0  0
 10 12  1  0  0  0  0
 10 21  1  0  0  0  0
 11 14  1  0  0  0  0
 11 22  1  0  0  0  0
 12 24  1  0  0  0  0
 13 14  1  0  0  0  0
 13 21  1  0  0  0  0
 14 24  1  0  0  0  0
 17 20  1  0  0  0  0
 18 20  1  0  0  0  0
 19 20  1  0  0  0  0
 20 25  1  0  0  0  0
  1 26  1  0  0  0  0
  2 27  1  0  0  0  0
  3 28  1  0  0  0  0
  8 29  1  0  0  0  0
  8 30  1  0  0  0  0
  9 31  1  0  0  0  0
  9 32  1  0  0  0  0
 10 33  1  0  0  0  0
 10 34  1  0  0  0  0
 11 35  1  0  0  0  0
 11 36  1  0  0  0  0
 12 37  1  0  0  0  0
 12 38  1  0  0  0  0
 13 39  1  0  0  0  0
 15 40  1  0  0  0  0
 15 41  1  0  0  0  0
 15 42  1  0  0  0  0
 16 43  1  0  0  0  0
 16 44  1  0  0  0  0
 16 45  1  0  0  0  0
 17 46  1  0  0  0  0
 17 47  1  0  0  0  0
 17 48  1  0  0  0  0
 18 49  1  0  0  0  0
 18 50  1  0  0  0  0
 18 51  1  0  0  0  0
 19 52  1  0  0  0  0
 19 53  1  0  0  0  0
 19 54  1  0  0  0  0
 21 55  1  0  0  0  0
M  END
> <id>
EN300-1640874

> <smiles>
CC=1C=C(C)C=C(C1)C2NCCOC32CCN(C3)C(=O)OC(C)(C)C

> <IUPAC Name>
tert-butyl 10-(3,5-dimethylphenyl)-6-oxa-2,9-diazaspiro[4.5]decane-2-carboxylate

> <CAS>
2171876-48-3

> <URL>
https://www.enaminestore.com/catalog/EN300-1640874

> <ROCS_ShapeQuery>
_x0404_0B

> <ROCS_TanimotoCombo>
0.437 

> <ROCS_ShapeTanimoto>
0.365 

> <ROCS_ColorTanimoto>
0.073 

> <ROCS_RefTversky>
0.324 

> <ROCS_RefColorTversky>
0.078 

> <ROCS_RefTverskyCombo>
0.402 

> <ROCS_FitTversky>
1.533 

> <ROCS_FitColorTversky>
0.497 

> <ROCS_FitTverskyCombo>
2.030 

> <ROCS_ColorScore>
-5.654

> <ROCS_Overlap>
2161.954

> <ROCS_Rank>
272                 

$$$$
untitled-dbase-103946_18
  -OEChem-08222312023D

 38 39  0     0  0  0  0  0  0999 V2000
   -8.7473    5.5049   -8.7858 C   0  0  0  0  0  0  0  0  0  0  0  0
   -8.9459    4.4014   -7.9610 C   0  0  0  0  0  0  0  0  0  0  0  0
   -8.5909    6.2785  -12.4132 C   0  0  0  0  0  0  0  0  0  0  0  0
   -9.1796    3.0080   -9.9176 C   0  0  0  0  0  0  0  0  0  0  0  0
   -8.7648    5.3603  -10.1835 C   0  0  0  0  0  0  0  0  0  0  0  0
   -8.5678    6.4541  -11.0371 C   0  0  0  0  0  0  0  0  0  0  0  0
   -8.9841    4.0943  -10.7660 C   0  0  0  0  0  0  0  0  0  0  0  0
   -9.1623    3.1516   -8.5280 C   0  0  0  0  0  0  0  0  0  0  0  0
   -8.8126    5.0024  -12.8900 C   0  0  0  0  0  0  0  0  0  0  0  0
   -8.6628    5.7798  -15.2741 C   0  0  0  0  0  0  0  0  0  0  0  0
   -8.3273    7.8370  -10.5183 C   0  0  0  0  0  0  0  0  0  0  0  0
   -6.3657    5.3461  -16.4614 C   0  0  0  0  0  0  0  0  0  0  0  0
   -7.5754    4.0182  -18.2170 C   0  0  0  0  0  0  0  0  0  0  0  0
   -7.7437    6.5241  -18.2072 C   0  0  0  0  0  0  0  0  0  0  0  0
   -7.6108    5.2705  -17.3437 C   0  0  0  0  0  0  0  0  0  0  0  0
   -9.0070    3.9209  -12.1011 N   0  0  0  0  0  0  0  0  0  0  0  0
   -8.8359    4.8257  -14.2787 N   0  0  0  0  0  0  0  0  0  0  0  0
   -8.4531    6.9776  -15.1260 O   0  0  0  0  0  0  0  0  0  0  0  0
   -9.3571    2.0661   -7.7303 O   0  0  0  0  0  0  0  0  0  0  0  0
   -8.7633    5.1747  -16.4985 O   0  0  0  0  0  0  0  0  0  0  0  0
   -8.5804    6.4713   -8.3165 H   0  0  0  0  0  0  0  0  0  0  0  0
   -8.9310    4.5230   -6.8817 H   0  0  0  0  0  0  0  0  0  0  0  0
   -8.4399    7.1166  -13.0866 H   0  0  0  0  0  0  0  0  0  0  0  0
   -9.3509    2.0203  -10.3433 H   0  0  0  0  0  0  0  0  0  0  0  0
   -9.2794    8.3635  -10.3933 H   0  0  0  0  0  0  0  0  0  0  0  0
   -7.8103    7.8104   -9.5524 H   0  0  0  0  0  0  0  0  0  0  0  0
   -7.6952    8.4106  -11.2058 H   0  0  0  0  0  0  0  0  0  0  0  0
   -6.3873    6.2437  -15.8330 H   0  0  0  0  0  0  0  0  0  0  0  0
   -6.2776    4.4691  -15.8120 H   0  0  0  0  0  0  0  0  0  0  0  0
   -5.4579    5.4177  -17.0714 H   0  0  0  0  0  0  0  0  0  0  0  0
   -8.4670    3.9598  -18.8518 H   0  0  0  0  0  0  0  0  0  0  0  0
   -7.5758    3.1121  -17.6003 H   0  0  0  0  0  0  0  0  0  0  0  0
   -6.6899    3.9992  -18.8604 H   0  0  0  0  0  0  0  0  0  0  0  0
   -8.6368    6.4701  -18.8403 H   0  0  0  0  0  0  0  0  0  0  0  0
   -7.8077    7.4301  -17.5959 H   0  0  0  0  0  0  0  0  0  0  0  0
   -6.8889    6.6219  -18.8862 H   0  0  0  0  0  0  0  0  0  0  0  0
   -9.0022    3.8697  -14.6028 H   0  0  0  0  0  0  0  0  0  0  0  0
   -9.3169    2.3240   -6.7956 H   0  0  0  0  0  0  0  0  0  0  0  0
  1  2  1  0  0  0  0
  1  5  2  0  0  0  0
  2  8  2  0  0  0  0
  3  6  2  0  0  0  0
  3  9  1  0  0  0  0
  4  7  2  0  0  0  0
  4  8  1  0  0  0  0
  5  6  1  0  0  0  0
  5  7  1  0  0  0  0
  6 11  1  0  0  0  0
  7 16  1  0  0  0  0
  8 19  1  0  0  0  0
  9 16  2  0  0  0  0
  9 17  1  0  0  0  0
 10 17  1  0  0  0  0
 10 18  2  0  0  0  0
 10 20  1  0  0  0  0
 12 15  1  0  0  0  0
 13 15  1  0  0  0  0
 14 15  1  0  0  0  0
 15 20  1  0  0  0  0
  1 21  1  0  0  0  0
  2 22  1  0  0  0  0
  3 23  1  0  0  0  0
  4 24  1  0  0  0  0
 11 25  1  0  0  0  0
 11 26  1  0  0  0  0
 11 27  1  0  0  0  0
 12 28  1  0  0  0  0
 12 29  1  0  0  0  0
 12 30  1  0  0  0  0
 13 31  1  0  0  0  0
 13 32  1  0  0  0  0
 13 33  1  0  0  0  0
 14 34  1  0  0  0  0
 14 35  1  0  0  0  0
 14 36  1  0  0  0  0
 17 37  1  0  0  0  0
 19 38  1  0  0  0  0
M  END
> <id>
EN300-26664795

> <smiles>
CC=1C=C(NC(=O)OC(C)(C)C)N=C2C=C(O)C=CC12

> <IUPAC Name>
tert-butyl N-(7-hydroxy-4-methylquinolin-2-yl)carbamate

> <CAS>
2413868-39-8

> <URL>
https://www.enaminestore.com/catalog/EN300-26664795

> <ROCS_ShapeQuery>
_x0404_0B

> <ROCS_TanimotoCombo>
0.437 

> <ROCS_ShapeTanimoto>
0.352 

> <ROCS_ColorTanimoto>
0.085 

> <ROCS_RefTversky>
0.308 

> <ROCS_RefColorTversky>
0.090 

> <ROCS_RefTverskyCombo>
0.398 

> <ROCS_FitTversky>
1.696 

> <ROCS_FitColorTversky>
0.574 

> <ROCS_FitTverskyCombo>
2.270 

> <ROCS_ColorScore>
-6.531

> <ROCS_Overlap>
2053.327

> <ROCS_Rank>
273                 

$$$$
untitled-dbase-147524_345
  -OEChem-08222312023D

 43 45  0     1  0  0  0  0  0999 V2000
   -9.0198    3.9657   -6.7366 C   0  0  0  0  0  0  0  0  0  0  0  0
   -9.5529    2.6960   -6.9480 C   0  0  0  0  0  0  0  0  0  0  0  0
   -8.5719    4.7427   -7.8109 C   0  0  0  0  0  0  0  0  0  0  0  0
   -9.6560    2.1629   -8.2359 C   0  0  0  0  0  0  0  0  0  0  0  0
   -8.6638    4.2273   -9.1192 C   0  0  0  0  0  0  0  0  0  0  0  0
   -8.3213    4.7134  -10.4082 C   0  0  0  0  0  0  0  0  0  0  0  0
   -9.2046    2.9492   -9.3021 C   0  0  0  0  0  0  0  0  0  0  0  0
   -8.6463    3.7418  -11.3257 C   0  0  0  0  0  0  0  0  0  0  0  0
   -7.1480    3.1371  -13.1028 C   0  0  0  0  0  0  0  0  0  0  0  0
   -8.3710    5.5761  -14.6011 C   0  0  0  0  0  0  0  0  0  0  0  0
   -7.7283    5.9917  -10.8621 C   0  0  0  0  0  0  0  0  0  0  0  0
   -8.2728    6.3435  -12.2545 C   0  0  0  0  0  0  0  0  0  0  0  0
   -8.4434    3.8244  -12.7903 C   0  0  2  0  0  0  0  0  0  0  0  0
   -6.7159    5.7330  -16.6309 C   0  0  0  0  0  0  0  0  0  0  0  0
   -7.2079    3.3273  -17.1598 C   0  0  0  0  0  0  0  0  0  0  0  0
   -8.9126    5.0965  -17.6815 C   0  0  0  0  0  0  0  0  0  0  0  0
   -7.8037    4.6640  -16.7233 C   0  0  0  0  0  0  0  0  0  0  0  0
   -9.1863    2.6814  -10.6553 N   0  0  0  0  0  0  0  0  0  0  0  0
   -8.2840    5.2330  -13.2379 N   0  0  0  0  0  0  0  0  0  0  0  0
   -6.0577    3.4563  -12.6525 O   0  0  0  0  0  0  0  0  0  0  0  0
   -8.4376    6.7301  -15.0210 O   0  0  0  0  0  0  0  0  0  0  0  0
   -7.3474    2.1071  -13.9610 O   0  0  0  0  0  0  0  0  0  0  0  0
   -8.3721    4.4786  -15.4221 O   0  0  0  0  0  0  0  0  0  0  0  0
   -8.9505    4.3592   -5.7258 H   0  0  0  0  0  0  0  0  0  0  0  0
   -9.8954    2.1099   -6.0990 H   0  0  0  0  0  0  0  0  0  0  0  0
   -8.1587    5.7309   -7.6298 H   0  0  0  0  0  0  0  0  0  0  0  0
  -10.0730    1.1746   -8.3987 H   0  0  0  0  0  0  0  0  0  0  0  0
   -7.9918    6.7831  -10.1549 H   0  0  0  0  0  0  0  0  0  0  0  0
   -6.6389    5.9216  -10.9028 H   0  0  0  0  0  0  0  0  0  0  0  0
   -9.2892    6.7749  -12.1523 H   0  0  0  0  0  0  0  0  0  0  0  0
   -7.6594    7.1505  -12.7070 H   0  0  0  0  0  0  0  0  0  0  0  0
   -9.2432    3.3241  -13.3322 H   0  0  0  0  0  0  0  0  0  0  0  0
   -7.1395    6.6940  -16.3178 H   0  0  0  0  0  0  0  0  0  0  0  0
   -5.9321    5.4506  -15.9205 H   0  0  0  0  0  0  0  0  0  0  0  0
   -6.2514    5.9038  -17.6088 H   0  0  0  0  0  0  0  0  0  0  0  0
   -7.9849    2.5573  -17.2275 H   0  0  0  0  0  0  0  0  0  0  0  0
   -6.4789    2.9665  -16.4253 H   0  0  0  0  0  0  0  0  0  0  0  0
   -6.7110    3.4048  -18.1323 H   0  0  0  0  0  0  0  0  0  0  0  0
   -9.6931    4.3299  -17.7480 H   0  0  0  0  0  0  0  0  0  0  0  0
   -9.3769    6.0356  -17.3634 H   0  0  0  0  0  0  0  0  0  0  0  0
   -8.5211    5.2280  -18.6967 H   0  0  0  0  0  0  0  0  0  0  0  0
   -9.5185    1.8276  -11.0802 H   0  0  0  0  0  0  0  0  0  0  0  0
   -8.2925    2.0123  -14.2063 H   0  0  0  0  0  0  0  0  0  0  0  0
  1  2  2  0  0  0  0
  1  3  1  0  0  0  0
  2  4  1  0  0  0  0
  3  5  2  0  0  0  0
  4  7  2  0  0  0  0
  5  6  1  0  0  0  0
  5  7  1  0  0  0  0
  6  8  2  0  0  0  0
  6 11  1  0  0  0  0
  7 18  1  0  0  0  0
  8 13  1  0  0  0  0
  8 18  1  0  0  0  0
  9 13  1  0  0  0  0
  9 20  2  0  0  0  0
  9 22  1  0  0  0  0
 10 19  1  0  0  0  0
 10 21  2  0  0  0  0
 10 23  1  0  0  0  0
 11 12  1  0  0  0  0
 12 19  1  0  0  0  0
 13 19  1  0  0  0  0
 14 17  1  0  0  0  0
 15 17  1  0  0  0  0
 16 17  1  0  0  0  0
 17 23  1  0  0  0  0
  1 24  1  0  0  0  0
  2 25  1  0  0  0  0
  3 26  1  0  0  0  0
  4 27  1  0  0  0  0
 11 28  1  0  0  0  0
 11 29  1  0  0  0  0
 12 30  1  0  0  0  0
 12 31  1  0  0  0  0
 13 32  1  0  0  0  0
 14 33  1  0  0  0  0
 14 34  1  0  0  0  0
 14 35  1  0  0  0  0
 15 36  1  0  0  0  0
 15 37  1  0  0  0  0
 15 38  1  0  0  0  0
 16 39  1  0  0  0  0
 16 40  1  0  0  0  0
 16 41  1  0  0  0  0
 18 42  1  0  0  0  0
 22 43  1  0  0  0  0
M  END
> <id>
EN300-1589395

> <smiles>
CC(C)(C)OC(=O)N1CCC2=C(NC=3C=CC=CC23)C1C(=O)O

> <MDLNUMBER>
MFCD24847909

> <IUPAC Name>
2-[(tert-butoxy)carbonyl]-1H,2H,3H,4H,9H-pyrido[3,4-b]indole-1-carboxylic acid

> <CAS>
1879014-74-0

> <URL>
https://www.enaminestore.com/catalog/EN300-1589395

> <ROCS_ShapeQuery>
_x0404_0B

> <ROCS_TanimotoCombo>
0.437 

> <ROCS_ShapeTanimoto>
0.337 

> <ROCS_ColorTanimoto>
0.100 

> <ROCS_RefTversky>
0.303 

> <ROCS_RefColorTversky>
0.107 

> <ROCS_RefTverskyCombo>
0.410 

> <ROCS_FitTversky>
1.494 

> <ROCS_FitColorTversky>
0.623 

> <ROCS_FitTverskyCombo>
2.117 

> <ROCS_ColorScore>
-7.711

> <ROCS_Overlap>
2024.241

> <ROCS_Rank>
274                 

$$$$
untitled-dbase-16326_177
  -OEChem-08222312023D

 59 61  0     0  0  0  0  0  0999 V2000
   -8.7189    4.7998  -16.2682 B   0  0  0  0  0  0  0  0  0  0  0  0
   -8.7535    3.4531  -14.0786 C   0  0  0  0  0  0  0  0  0  0  0  0
   -8.7710    3.3471  -12.6851 C   0  0  0  0  0  0  0  0  0  0  0  0
   -8.7415    5.8744  -13.9362 C   0  0  0  0  0  0  0  0  0  0  0  0
   -8.7389    4.7079  -14.7007 C   0  0  0  0  0  0  0  0  0  0  0  0
   -8.7589    5.7662  -12.5505 C   0  0  0  0  0  0  0  0  0  0  0  0
   -8.7735    4.5128  -11.9320 C   0  0  0  0  0  0  0  0  0  0  0  0
   -8.8056    3.6395   -9.5931 C   0  0  0  0  0  0  0  0  0  0  0  0
   -8.7907    6.1001  -10.2043 C   0  0  0  0  0  0  0  0  0  0  0  0
   -8.7627    6.8876  -11.5382 C   0  0  0  0  0  0  0  0  0  0  0  0
   -9.4465    4.7204  -18.4383 C   0  0  0  0  0  0  0  0  0  0  0  0
   -7.9370    5.1324  -18.3950 C   0  0  0  0  0  0  0  0  0  0  0  0
  -10.0100    7.7665  -11.6815 C   0  0  0  0  0  0  0  0  0  0  0  0
   -7.4928    7.7389  -11.6448 C   0  0  0  0  0  0  0  0  0  0  0  0
  -10.4271    5.8764  -18.7385 C   0  0  0  0  0  0  0  0  0  0  0  0
   -9.7688    3.5678  -19.3997 C   0  0  0  0  0  0  0  0  0  0  0  0
   -7.5924    6.3896  -19.2059 C   0  0  0  0  0  0  0  0  0  0  0  0
   -6.9475    4.0183  -18.8045 C   0  0  0  0  0  0  0  0  0  0  0  0
   -9.4831    2.5722   -7.0237 C   0  0  0  0  0  0  0  0  0  0  0  0
   -8.1006    4.4470   -6.0840 C   0  0  0  0  0  0  0  0  0  0  0  0
  -10.1550    4.9628   -7.4336 C   0  0  0  0  0  0  0  0  0  0  0  0
   -8.9841    3.9991   -7.2464 C   0  0  0  0  0  0  0  0  0  0  0  0
   -8.7899    4.6614  -10.5331 N   0  0  0  0  0  0  0  0  0  0  0  0
   -9.3035    2.5278   -9.7458 O   0  0  0  0  0  0  0  0  0  0  0  0
   -9.7244    4.2664  -17.0744 O   0  0  0  0  0  0  0  0  0  0  0  0
   -7.6940    5.4225  -16.9807 O   0  0  0  0  0  0  0  0  0  0  0  0
   -8.1810    4.0214   -8.4322 O   0  0  0  0  0  0  0  0  0  0  0  0
   -8.7515    2.5339  -14.6627 H   0  0  0  0  0  0  0  0  0  0  0  0
   -8.7825    2.3613  -12.2365 H   0  0  0  0  0  0  0  0  0  0  0  0
   -8.7315    6.8591  -14.3974 H   0  0  0  0  0  0  0  0  0  0  0  0
   -7.9187    6.3055   -9.5716 H   0  0  0  0  0  0  0  0  0  0  0  0
   -9.6861    6.3101   -9.6066 H   0  0  0  0  0  0  0  0  0  0  0  0
   -9.9819    8.5614  -10.9408 H   0  0  0  0  0  0  0  0  0  0  0  0
  -10.9003    7.1621  -11.5286 H   0  0  0  0  0  0  0  0  0  0  0  0
  -10.0358    8.2017  -12.6773 H   0  0  0  0  0  0  0  0  0  0  0  0
   -7.5253    8.5353  -10.9056 H   0  0  0  0  0  0  0  0  0  0  0  0
   -7.4278    8.1727  -12.6395 H   0  0  0  0  0  0  0  0  0  0  0  0
   -6.6206    7.1155  -11.4654 H   0  0  0  0  0  0  0  0  0  0  0  0
  -11.4373    5.4869  -18.7457 H   0  0  0  0  0  0  0  0  0  0  0  0
  -10.1859    6.2989  -19.7058 H   0  0  0  0  0  0  0  0  0  0  0  0
  -10.3262    6.6311  -17.9686 H   0  0  0  0  0  0  0  0  0  0  0  0
  -10.8329    3.3533  -19.3623 H   0  0  0  0  0  0  0  0  0  0  0  0
   -9.2100    2.6845  -19.1046 H   0  0  0  0  0  0  0  0  0  0  0  0
   -9.4911    3.8523  -20.4104 H   0  0  0  0  0  0  0  0  0  0  0  0
   -6.5299    6.5967  -19.1170 H   0  0  0  0  0  0  0  0  0  0  0  0
   -8.1597    7.2329  -18.8231 H   0  0  0  0  0  0  0  0  0  0  0  0
   -7.8442    6.2264  -20.2497 H   0  0  0  0  0  0  0  0  0  0  0  0
   -5.9380    4.4046  -18.7405 H   0  0  0  0  0  0  0  0  0  0  0  0
   -7.1638    3.7129  -19.8204 H   0  0  0  0  0  0  0  0  0  0  0  0
   -7.0665    3.1785  -18.1314 H   0  0  0  0  0  0  0  0  0  0  0  0
  -10.1176    2.2470   -7.8559 H   0  0  0  0  0  0  0  0  0  0  0  0
   -8.6528    1.8656   -6.9228 H   0  0  0  0  0  0  0  0  0  0  0  0
  -10.1016    2.5106   -6.1210 H   0  0  0  0  0  0  0  0  0  0  0  0
   -7.7403    5.4703   -6.2395 H   0  0  0  0  0  0  0  0  0  0  0  0
   -7.2090    3.8145   -6.0052 H   0  0  0  0  0  0  0  0  0  0  0  0
   -8.6375    4.4096   -5.1307 H   0  0  0  0  0  0  0  0  0  0  0  0
   -9.7973    5.9864   -7.5933 H   0  0  0  0  0  0  0  0  0  0  0  0
  -10.7794    4.6779   -8.2866 H   0  0  0  0  0  0  0  0  0  0  0  0
  -10.7835    4.9914   -6.5362 H   0  0  0  0  0  0  0  0  0  0  0  0
  1  5  1  0  0  0  0
  1 25  1  0  0  0  0
  1 26  1  0  0  0  0
  2  3  1  0  0  0  0
  2  5  2  0  0  0  0
  3  7  2  0  0  0  0
  4  5  1  0  0  0  0
  4  6  2  0  0  0  0
  6  7  1  0  0  0  0
  6 10  1  0  0  0  0
  7 23  1  0  0  0  0
  8 23  1  0  0  0  0
  8 24  2  0  0  0  0
  8 27  1  0  0  0  0
  9 10  1  0  0  0  0
  9 23  1  0  0  0  0
 10 13  1  0  0  0  0
 10 14  1  0  0  0  0
 11 12  1  0  0  0  0
 11 15  1  0  0  0  0
 11 16  1  0  0  0  0
 11 25  1  0  0  0  0
 12 17  1  0  0  0  0
 12 18  1  0  0  0  0
 12 26  1  0  0  0  0
 19 22  1  0  0  0  0
 20 22  1  0  0  0  0
 21 22  1  0  0  0  0
 22 27  1  0  0  0  0
  2 28  1  0  0  0  0
  3 29  1  0  0  0  0
  4 30  1  0  0  0  0
  9 31  1  0  0  0  0
  9 32  1  0  0  0  0
 13 33  1  0  0  0  0
 13 34  1  0  0  0  0
 13 35  1  0  0  0  0
 14 36  1  0  0  0  0
 14 37  1  0  0  0  0
 14 38  1  0  0  0  0
 15 39  1  0  0  0  0
 15 40  1  0  0  0  0
 15 41  1  0  0  0  0
 16 42  1  0  0  0  0
 16 43  1  0  0  0  0
 16 44  1  0  0  0  0
 17 45  1  0  0  0  0
 17 46  1  0  0  0  0
 17 47  1  0  0  0  0
 18 48  1  0  0  0  0
 18 49  1  0  0  0  0
 18 50  1  0  0  0  0
 19 51  1  0  0  0  0
 19 52  1  0  0  0  0
 19 53  1  0  0  0  0
 20 54  1  0  0  0  0
 20 55  1  0  0  0  0
 20 56  1  0  0  0  0
 21 57  1  0  0  0  0
 21 58  1  0  0  0  0
 21 59  1  0  0  0  0
M  END
> <id>
EN300-203814

> <smiles>
CC(C)(C)OC(=O)N1CC(C)(C)C=2C=C(C=CC12)B3OC(C)(C)C(C)(C)O3

> <MDLNUMBER>
MFCD12408285

> <IUPAC Name>
tert-butyl 3,3-dimethyl-5-(tetramethyl-1,3,2-dioxaborolan-2-yl)-2,3-dihydro-1H-indole-1-carboxylate

> <URL>
https://www.enaminestore.com/catalog/EN300-203814

> <ROCS_ShapeQuery>
_x0404_0B

> <ROCS_TanimotoCombo>
0.437 

> <ROCS_ShapeTanimoto>
0.397 

> <ROCS_ColorTanimoto>
0.040 

> <ROCS_RefTversky>
0.348 

> <ROCS_RefColorTversky>
0.045 

> <ROCS_RefTverskyCombo>
0.393 

> <ROCS_FitTversky>
1.550 

> <ROCS_FitColorTversky>
0.285 

> <ROCS_FitTverskyCombo>
1.836 

> <ROCS_ColorScore>
-3.253

> <ROCS_Overlap>
2324.286

> <ROCS_Rank>
275                 

$$$$
untitled-dbase-155364_178
  -OEChem-08222312023D

 65 66  0     0  0  0  0  0  0999 V2000
   -8.4307    5.8288  -15.7254 B   0  0  0  0  0  0  0  0  0  0  0  0
   -8.6089    6.3683  -13.2841 C   0  0  0  0  0  0  0  0  0  0  0  0
   -8.4765    6.8061  -14.5451 C   0  0  0  0  0  0  0  0  0  0  0  0
   -8.9951    4.9714   -9.1277 C   0  0  0  0  0  0  0  0  0  0  0  0
   -8.6551    7.3085  -12.1241 C   0  0  0  0  0  0  0  0  0  0  0  0
   -8.7164    4.9139  -12.9600 C   0  0  0  0  0  0  0  0  0  0  0  0
   -9.3825    6.7574  -10.8654 C   0  0  0  0  0  0  0  0  0  0  0  0
   -8.2220    4.5220  -11.5362 C   0  0  0  0  0  0  0  0  0  0  0  0
   -9.1367    4.3365  -17.3107 C   0  0  0  0  0  0  0  0  0  0  0  0
   -7.5962    4.5790  -17.4516 C   0  0  0  0  0  0  0  0  0  0  0  0
  -10.9033    6.6770  -11.1021 C   0  0  0  0  0  0  0  0  0  0  0  0
   -9.1173    7.8284   -9.7712 C   0  0  0  0  0  0  0  0  0  0  0  0
   -6.6861    4.6260  -11.4591 C   0  0  0  0  0  0  0  0  0  0  0  0
   -8.6318    3.0300  -11.3951 C   0  0  0  0  0  0  0  0  0  0  0  0
   -9.5506    2.8591  -17.2534 C   0  0  0  0  0  0  0  0  0  0  0  0
  -10.0045    5.0300  -18.3852 C   0  0  0  0  0  0  0  0  0  0  0  0
   -7.1293    4.9275  -18.8721 C   0  0  0  0  0  0  0  0  0  0  0  0
   -6.7071    3.4276  -16.9301 C   0  0  0  0  0  0  0  0  0  0  0  0
  -10.4525    3.6716   -7.0278 C   0  0  0  0  0  0  0  0  0  0  0  0
   -9.2673    1.5804   -7.7567 C   0  0  0  0  0  0  0  0  0  0  0  0
   -7.9444    3.5258   -6.8772 C   0  0  0  0  0  0  0  0  0  0  0  0
   -9.1847    3.1024   -7.6629 C   0  0  0  0  0  0  0  0  0  0  0  0
   -8.8539    5.3981  -10.4714 N   0  0  0  0  0  0  0  0  0  0  0  0
   -9.0159    5.7189   -8.1520 O   0  0  0  0  0  0  0  0  0  0  0  0
   -9.4717    4.9534  -16.0253 O   0  0  0  0  0  0  0  0  0  0  0  0
   -7.3444    5.7380  -16.5925 O   0  0  0  0  0  0  0  0  0  0  0  0
   -9.0751    3.6118   -8.9976 O   0  0  0  0  0  0  0  0  0  0  0  0
   -8.3978    7.8714  -14.7620 H   0  0  0  0  0  0  0  0  0  0  0  0
   -7.6080    7.5738  -11.8670 H   0  0  0  0  0  0  0  0  0  0  0  0
   -9.1074    8.2746  -12.4318 H   0  0  0  0  0  0  0  0  0  0  0  0
   -9.7586    4.5650  -13.1095 H   0  0  0  0  0  0  0  0  0  0  0  0
   -8.1346    4.3595  -13.7250 H   0  0  0  0  0  0  0  0  0  0  0  0
  -11.3757    6.2906  -10.2085 H   0  0  0  0  0  0  0  0  0  0  0  0
  -11.0919    6.0164  -11.9381 H   0  0  0  0  0  0  0  0  0  0  0  0
  -11.2754    7.6695  -11.3205 H   0  0  0  0  0  0  0  0  0  0  0  0
   -9.5972    7.5124   -8.8559 H   0  0  0  0  0  0  0  0  0  0  0  0
   -9.5283    8.7708  -10.1044 H   0  0  0  0  0  0  0  0  0  0  0  0
   -8.0499    7.9149   -9.6250 H   0  0  0  0  0  0  0  0  0  0  0  0
   -6.3720    4.3492  -10.4629 H   0  0  0  0  0  0  0  0  0  0  0  0
   -6.3991    5.6453  -11.6740 H   0  0  0  0  0  0  0  0  0  0  0  0
   -6.2586    3.9532  -12.1886 H   0  0  0  0  0  0  0  0  0  0  0  0
   -8.3219    2.6731  -10.4216 H   0  0  0  0  0  0  0  0  0  0  0  0
   -8.1434    2.4585  -12.1736 H   0  0  0  0  0  0  0  0  0  0  0  0
   -9.7067    2.9520  -11.4951 H   0  0  0  0  0  0  0  0  0  0  0  0
  -10.6274    2.7997  -17.1565 H   0  0  0  0  0  0  0  0  0  0  0  0
   -9.0754    2.3944  -16.3987 H   0  0  0  0  0  0  0  0  0  0  0  0
   -9.2330    2.3700  -18.1658 H   0  0  0  0  0  0  0  0  0  0  0  0
  -11.0515    4.8043  -18.2048 H   0  0  0  0  0  0  0  0  0  0  0  0
   -9.7195    4.6677  -19.3686 H   0  0  0  0  0  0  0  0  0  0  0  0
   -9.8510    6.1041  -18.3354 H   0  0  0  0  0  0  0  0  0  0  0  0
   -6.0566    5.0749  -18.8628 H   0  0  0  0  0  0  0  0  0  0  0  0
   -7.6254    5.8353  -19.1918 H   0  0  0  0  0  0  0  0  0  0  0  0
   -7.3856    4.1113  -19.5359 H   0  0  0  0  0  0  0  0  0  0  0  0
   -5.6616    3.6868  -17.0699 H   0  0  0  0  0  0  0  0  0  0  0  0
   -6.9325    2.5193  -17.4812 H   0  0  0  0  0  0  0  0  0  0  0  0
   -6.9037    3.2695  -15.8737 H   0  0  0  0  0  0  0  0  0  0  0  0
  -10.3971    4.7639   -6.9587 H   0  0  0  0  0  0  0  0  0  0  0  0
  -11.3460    3.4044   -7.6015 H   0  0  0  0  0  0  0  0  0  0  0  0
  -10.5760    3.3029   -6.0031 H   0  0  0  0  0  0  0  0  0  0  0  0
   -8.3597    1.1677   -8.2118 H   0  0  0  0  0  0  0  0  0  0  0  0
  -10.1012    1.2736   -8.3984 H   0  0  0  0  0  0  0  0  0  0  0  0
   -9.4007    1.1215   -6.7717 H   0  0  0  0  0  0  0  0  0  0  0  0
   -7.0348    3.1176   -7.3326 H   0  0  0  0  0  0  0  0  0  0  0  0
   -7.8487    4.6154   -6.8311 H   0  0  0  0  0  0  0  0  0  0  0  0
   -7.9796    3.1356   -5.8536 H   0  0  0  0  0  0  0  0  0  0  0  0
  1  3  1  0  0  0  0
  1 25  1  0  0  0  0
  1 26  1  0  0  0  0
  2  3  2  0  0  0  0
  2  5  1  0  0  0  0
  2  6  1  0  0  0  0
  4 23  1  0  0  0  0
  4 24  2  0  0  0  0
  4 27  1  0  0  0  0
  5  7  1  0  0  0  0
  6  8  1  0  0  0  0
  7 11  1  0  0  0  0
  7 12  1  0  0  0  0
  7 23  1  0  0  0  0
  8 13  1  0  0  0  0
  8 14  1  0  0  0  0
  8 23  1  0  0  0  0
  9 10  1  0  0  0  0
  9 15  1  0  0  0  0
  9 16  1  0  0  0  0
  9 25  1  0  0  0  0
 10 17  1  0  0  0  0
 10 18  1  0  0  0  0
 10 26  1  0  0  0  0
 19 22  1  0  0  0  0
 20 22  1  0  0  0  0
 21 22  1  0  0  0  0
 22 27  1  0  0  0  0
  3 28  1  0  0  0  0
  5 29  1  0  0  0  0
  5 30  1  0  0  0  0
  6 31  1  0  0  0  0
  6 32  1  0  0  0  0
 11 33  1  0  0  0  0
 11 34  1  0  0  0  0
 11 35  1  0  0  0  0
 12 36  1  0  0  0  0
 12 37  1  0  0  0  0
 12 38  1  0  0  0  0
 13 39  1  0  0  0  0
 13 40  1  0  0  0  0
 13 41  1  0  0  0  0
 14 42  1  0  0  0  0
 14 43  1  0  0  0  0
 14 44  1  0  0  0  0
 15 45  1  0  0  0  0
 15 46  1  0  0  0  0
 15 47  1  0  0  0  0
 16 48  1  0  0  0  0
 16 49  1  0  0  0  0
 16 50  1  0  0  0  0
 17 51  1  0  0  0  0
 17 52  1  0  0  0  0
 17 53  1  0  0  0  0
 18 54  1  0  0  0  0
 18 55  1  0  0  0  0
 18 56  1  0  0  0  0
 19 57  1  0  0  0  0
 19 58  1  0  0  0  0
 19 59  1  0  0  0  0
 20 60  1  0  0  0  0
 20 61  1  0  0  0  0
 20 62  1  0  0  0  0
 21 63  1  0  0  0  0
 21 64  1  0  0  0  0
 21 65  1  0  0  0  0
M  END
> <id>
EN300-28301775

> <smiles>
CC(C)(C)OC(=O)N1C(C)(C)CC(=CB2OC(C)(C)C(C)(C)O2)CC1(C)C

> <IUPAC Name>
tert-butyl 2,2,6,6-tetramethyl-4-[(4,4,5,5-tetramethyl-1,3,2-dioxaborolan-2-yl)methylidene]piperidine-1-carboxylate

> <URL>
https://www.enaminestore.com/catalog/EN300-28301775

> <ROCS_ShapeQuery>
_x0404_0B

> <ROCS_TanimotoCombo>
0.437 

> <ROCS_ShapeTanimoto>
0.395 

> <ROCS_ColorTanimoto>
0.042 

> <ROCS_RefTversky>
0.345 

> <ROCS_RefColorTversky>
0.047 

> <ROCS_RefTverskyCombo>
0.392 

> <ROCS_FitTversky>
1.577 

> <ROCS_FitColorTversky>
0.297 

> <ROCS_FitTverskyCombo>
1.873 

> <ROCS_ColorScore>
-3.377

> <ROCS_Overlap>
2306.584

> <ROCS_Rank>
276                 

$$$$
untitled-dbase-148136_1851
  -OEChem-08222312023D

 48 50  0     0  0  0  0  0  0999 V2000
   -9.2813    2.8004   -7.8208 C   0  0  0  0  0  0  0  0  0  0  0  0
   -9.3000    4.1627   -7.5487 C   0  0  0  0  0  0  0  0  0  0  0  0
   -9.0491    2.3627   -9.1215 C   0  0  0  0  0  0  0  0  0  0  0  0
   -9.0865    5.0838   -8.5772 C   0  0  0  0  0  0  0  0  0  0  0  0
   -8.5982    2.8763  -11.4740 C   0  0  0  0  0  0  0  0  0  0  0  0
   -8.4251    5.1482  -12.1136 C   0  0  0  0  0  0  0  0  0  0  0  0
   -8.8343    3.2893  -10.1558 C   0  0  0  0  0  0  0  0  0  0  0  0
   -8.3896    3.8162  -12.4731 C   0  0  0  0  0  0  0  0  0  0  0  0
   -8.8517    4.6740   -9.8868 C   0  0  0  0  0  0  0  0  0  0  0  0
   -8.8978    4.7418  -18.0071 C   0  0  0  0  0  0  0  0  0  0  0  0
   -7.2389    4.3673  -14.7320 C   0  0  0  0  0  0  0  0  0  0  0  0
   -9.4759    3.1197  -14.6329 C   0  0  0  0  0  0  0  0  0  0  0  0
   -8.0376    5.2064  -15.7272 C   0  0  0  0  0  0  0  0  0  0  0  0
   -9.3240    3.1021  -16.1524 C   0  0  0  0  0  0  0  0  0  0  0  0
   -8.1303    3.3893  -13.9256 C   0  0  0  0  0  0  0  0  0  0  0  0
   -7.8420    5.4378  -20.5733 C   0  0  0  0  0  0  0  0  0  0  0  0
   -6.7179    7.3462  -19.3886 C   0  0  0  0  0  0  0  0  0  0  0  0
   -6.1450    4.9798  -18.7719 C   0  0  0  0  0  0  0  0  0  0  0  0
   -7.2493    5.9212  -19.2505 C   0  0  0  0  0  0  0  0  0  0  0  0
   -8.6496    5.5884  -10.8543 N   0  0  0  0  0  0  0  0  0  0  0  0
   -8.7679    4.3570  -16.6692 N   0  0  0  0  0  0  0  0  0  0  0  0
   -9.4932    4.0892  -18.8622 O   0  0  0  0  0  0  0  0  0  0  0  0
   -7.4134    2.1427  -13.8895 O   0  0  0  0  0  0  0  0  0  0  0  0
   -8.2891    5.9420  -18.2659 O   0  0  0  0  0  0  0  0  0  0  0  0
   -9.4481    2.0816   -7.0244 H   0  0  0  0  0  0  0  0  0  0  0  0
   -9.4811    4.5131   -6.5367 H   0  0  0  0  0  0  0  0  0  0  0  0
   -9.0366    1.2940   -9.3238 H   0  0  0  0  0  0  0  0  0  0  0  0
   -9.1060    6.1455   -8.3379 H   0  0  0  0  0  0  0  0  0  0  0  0
   -8.5781    1.8165  -11.7207 H   0  0  0  0  0  0  0  0  0  0  0  0
   -8.2704    5.9341  -12.8465 H   0  0  0  0  0  0  0  0  0  0  0  0
   -6.4730    3.8037  -15.2860 H   0  0  0  0  0  0  0  0  0  0  0  0
   -6.7020    5.0410  -14.0458 H   0  0  0  0  0  0  0  0  0  0  0  0
  -10.2122    3.8868  -14.3558 H   0  0  0  0  0  0  0  0  0  0  0  0
   -9.8825    2.1514  -14.3124 H   0  0  0  0  0  0  0  0  0  0  0  0
   -8.7295    5.8611  -15.1846 H   0  0  0  0  0  0  0  0  0  0  0  0
   -7.3783    5.8573  -16.3152 H   0  0  0  0  0  0  0  0  0  0  0  0
   -8.6498    2.2905  -16.4740 H   0  0  0  0  0  0  0  0  0  0  0  0
  -10.3009    2.8836  -16.6110 H   0  0  0  0  0  0  0  0  0  0  0  0
   -8.2246    4.4152  -20.4784 H   0  0  0  0  0  0  0  0  0  0  0  0
   -8.6586    6.0847  -20.9098 H   0  0  0  0  0  0  0  0  0  0  0  0
   -7.0769    5.4099  -21.3576 H   0  0  0  0  0  0  0  0  0  0  0  0
   -6.2917    7.6971  -18.4418 H   0  0  0  0  0  0  0  0  0  0  0  0
   -7.5268    8.0418  -19.6396 H   0  0  0  0  0  0  0  0  0  0  0  0
   -5.9472    7.4167  -20.1630 H   0  0  0  0  0  0  0  0  0  0  0  0
   -5.7197    5.3263  -17.8231 H   0  0  0  0  0  0  0  0  0  0  0  0
   -6.5171    3.9598  -18.6318 H   0  0  0  0  0  0  0  0  0  0  0  0
   -5.3175    4.9530  -19.4902 H   0  0  0  0  0  0  0  0  0  0  0  0
   -7.9817    1.5085  -13.4244 H   0  0  0  0  0  0  0  0  0  0  0  0
  1  2  1  0  0  0  0
  1  3  2  0  0  0  0
  2  4  2  0  0  0  0
  3  7  1  0  0  0  0
  4  9  1  0  0  0  0
  5  7  2  0  0  0  0
  5  8  1  0  0  0  0
  6  8  2  0  0  0  0
  6 20  1  0  0  0  0
  7  9  1  0  0  0  0
  8 15  1  0  0  0  0
  9 20  2  0  0  0  0
 10 21  1  0  0  0  0
 10 22  2  0  0  0  0
 10 24  1  0  0  0  0
 11 13  1  0  0  0  0
 11 15  1  0  0  0  0
 12 14  1  0  0  0  0
 12 15  1  0  0  0  0
 13 21  1  0  0  0  0
 14 21  1  0  0  0  0
 15 23  1  0  0  0  0
 16 19  1  0  0  0  0
 17 19  1  0  0  0  0
 18 19  1  0  0  0  0
 19 24  1  0  0  0  0
  1 25  1  0  0  0  0
  2 26  1  0  0  0  0
  3 27  1  0  0  0  0
  4 28  1  0  0  0  0
  5 29  1  0  0  0  0
  6 30  1  0  0  0  0
 11 31  1  0  0  0  0
 11 32  1  0  0  0  0
 12 33  1  0  0  0  0
 12 34  1  0  0  0  0
 13 35  1  0  0  0  0
 13 36  1  0  0  0  0
 14 37  1  0  0  0  0
 14 38  1  0  0  0  0
 16 39  1  0  0  0  0
 16 40  1  0  0  0  0
 16 41  1  0  0  0  0
 17 42  1  0  0  0  0
 17 43  1  0  0  0  0
 17 44  1  0  0  0  0
 18 45  1  0  0  0  0
 18 46  1  0  0  0  0
 18 47  1  0  0  0  0
 23 48  1  0  0  0  0
M  END
> <id>
EN300-26681843

> <smiles>
CC(C)(C)OC(=O)N1CCC(O)(CC1)C=2C=NC=3C=CC=CC3C2

> <IUPAC Name>
tert-butyl 4-hydroxy-4-(quinolin-3-yl)piperidine-1-carboxylate

> <CAS>
256372-13-1

> <URL>
https://www.enaminestore.com/catalog/EN300-26681843

> <ROCS_ShapeQuery>
_x0404_0B

> <ROCS_TanimotoCombo>
0.437 

> <ROCS_ShapeTanimoto>
0.338 

> <ROCS_ColorTanimoto>
0.099 

> <ROCS_RefTversky>
0.305 

> <ROCS_RefColorTversky>
0.104 

> <ROCS_RefTverskyCombo>
0.409 

> <ROCS_FitTversky>
1.474 

> <ROCS_FitColorTversky>
0.659 

> <ROCS_FitTverskyCombo>
2.133 

> <ROCS_ColorScore>
-7.501

> <ROCS_Overlap>
2038.897

> <ROCS_Rank>
277                 

$$$$
untitled-dbase-91009_3821
  -OEChem-08222312023D

 52 54  0     1  0  0  0  0  0999 V2000
   -8.5041    4.6333   -8.1220 C   0  0  0  0  0  0  0  0  0  0  0  0
   -8.3858    3.7496   -7.0550 C   0  0  0  0  0  0  0  0  0  0  0  0
   -9.5967    2.9174   -9.3544 C   0  0  0  0  0  0  0  0  0  0  0  0
   -9.1198    4.2171   -9.2971 C   0  0  0  0  0  0  0  0  0  0  0  0
   -8.8957    2.4709   -7.2126 C   0  0  0  0  0  0  0  0  0  0  0  0
   -8.2923    4.7913  -17.2062 C   0  0  0  0  0  0  0  0  0  0  0  0
   -8.1721    6.2232  -10.6277 C   0  0  0  0  0  0  0  0  0  0  0  0
   -8.3509    6.7381  -12.0499 C   0  0  0  0  0  0  0  0  0  0  0  0
   -9.8033    5.8652  -13.9227 C   0  0  0  0  0  0  0  0  0  0  0  0
   -7.4469    4.9337  -13.6088 C   0  0  0  0  0  0  0  0  0  0  0  0
   -9.2207    4.4494  -11.8517 C   0  0  0  0  0  0  0  0  0  0  0  0
   -9.7594    4.9941  -15.1731 C   0  0  0  0  0  0  0  0  0  0  0  0
   -7.3049    5.4603  -15.0326 C   0  0  0  0  0  0  0  0  0  0  0  0
   -9.2652    5.1573  -10.4791 C   0  0  1  0  0  0  0  0  0  0  0  0
   -8.7077    5.4918  -12.8940 C   0  0  0  0  0  0  0  0  0  0  0  0
   -7.8272    7.0129  -18.5202 C   0  0  0  0  0  0  0  0  0  0  0  0
   -5.3718    6.4886  -18.4478 C   0  0  0  0  0  0  0  0  0  0  0  0
   -6.8773    5.2152  -20.0035 C   0  0  0  0  0  0  0  0  0  0  0  0
   -6.7726    5.9148  -18.6491 C   0  0  0  0  0  0  0  0  0  0  0  0
   -9.5001    2.0305   -8.3387 N   0  0  0  0  0  0  0  0  0  0  0  0
   -8.4595    5.0797  -15.8484 N   0  0  0  0  0  0  0  0  0  0  0  0
   -9.2010    4.4431  -17.9577 O   0  0  0  0  0  0  0  0  0  0  0  0
  -10.5312    5.8046  -10.3098 O   0  0  0  0  0  0  0  0  0  0  0  0
   -6.9945    4.9466  -17.6174 O   0  0  0  0  0  0  0  0  0  0  0  0
   -8.7439    1.2474   -5.7680 Br  0  0  0  0  0  0  0  0  0  0  0  0
   -8.1143    5.6434   -8.0287 H   0  0  0  0  0  0  0  0  0  0  0  0
   -7.9061    4.0702   -6.1364 H   0  0  0  0  0  0  0  0  0  0  0  0
  -10.0872    2.5373  -10.2452 H   0  0  0  0  0  0  0  0  0  0  0  0
   -7.1711    5.7889  -10.5120 H   0  0  0  0  0  0  0  0  0  0  0  0
   -8.2803    7.0374   -9.9027 H   0  0  0  0  0  0  0  0  0  0  0  0
   -9.1673    7.4725  -12.0720 H   0  0  0  0  0  0  0  0  0  0  0  0
   -7.4511    7.2539  -12.4049 H   0  0  0  0  0  0  0  0  0  0  0  0
   -9.6782    6.9144  -14.2192 H   0  0  0  0  0  0  0  0  0  0  0  0
  -10.7947    5.7872  -13.4623 H   0  0  0  0  0  0  0  0  0  0  0  0
   -7.4711    3.8397  -13.6252 H   0  0  0  0  0  0  0  0  0  0  0  0
   -6.5527    5.2197  -13.0437 H   0  0  0  0  0  0  0  0  0  0  0  0
   -8.5425    3.5877  -11.8111 H   0  0  0  0  0  0  0  0  0  0  0  0
  -10.2132    4.0646  -12.1149 H   0  0  0  0  0  0  0  0  0  0  0  0
   -9.9225    3.9381  -14.9250 H   0  0  0  0  0  0  0  0  0  0  0  0
  -10.5642    5.2882  -15.8565 H   0  0  0  0  0  0  0  0  0  0  0  0
   -7.1771    6.5459  -15.0062 H   0  0  0  0  0  0  0  0  0  0  0  0
   -6.4165    5.0450  -15.5203 H   0  0  0  0  0  0  0  0  0  0  0  0
   -8.8342    6.6050  -18.6640 H   0  0  0  0  0  0  0  0  0  0  0  0
   -7.7857    7.4991  -17.5400 H   0  0  0  0  0  0  0  0  0  0  0  0
   -7.6908    7.7787  -19.2923 H   0  0  0  0  0  0  0  0  0  0  0  0
   -4.6119    5.7042  -18.5394 H   0  0  0  0  0  0  0  0  0  0  0  0
   -5.2627    6.9079  -17.4411 H   0  0  0  0  0  0  0  0  0  0  0  0
   -5.1485    7.2744  -19.1767 H   0  0  0  0  0  0  0  0  0  0  0  0
   -6.1209    4.4274  -20.0962 H   0  0  0  0  0  0  0  0  0  0  0  0
   -7.8646    4.7652  -20.1498 H   0  0  0  0  0  0  0  0  0  0  0  0
   -6.6912    5.9203  -20.8216 H   0  0  0  0  0  0  0  0  0  0  0  0
  -11.2045    5.1054  -10.3069 H   0  0  0  0  0  0  0  0  0  0  0  0
  1  2  1  0  0  0  0
  1  4  2  0  0  0  0
  2  5  2  0  0  0  0
  3  4  1  0  0  0  0
  3 20  2  0  0  0  0
  4 14  1  0  0  0  0
  5 20  1  0  0  0  0
  5 25  1  0  0  0  0
  6 21  1  0  0  0  0
  6 22  2  0  0  0  0
  6 24  1  0  0  0  0
  7  8  1  0  0  0  0
  7 14  1  0  0  0  0
  8 15  1  0  0  0  0
  9 12  1  0  0  0  0
  9 15  1  0  0  0  0
 10 13  1  0  0  0  0
 10 15  1  0  0  0  0
 11 14  1  0  0  0  0
 11 15  1  0  0  0  0
 12 21  1  0  0  0  0
 13 21  1  0  0  0  0
 14 23  1  0  0  0  0
 16 19  1  0  0  0  0
 17 19  1  0  0  0  0
 18 19  1  0  0  0  0
 19 24  1  0  0  0  0
  1 26  1  0  0  0  0
  2 27  1  0  0  0  0
  3 28  1  0  0  0  0
  7 29  1  0  0  0  0
  7 30  1  0  0  0  0
  8 31  1  0  0  0  0
  8 32  1  0  0  0  0
  9 33  1  0  0  0  0
  9 34  1  0  0  0  0
 10 35  1  0  0  0  0
 10 36  1  0  0  0  0
 11 37  1  0  0  0  0
 11 38  1  0  0  0  0
 12 39  1  0  0  0  0
 12 40  1  0  0  0  0
 13 41  1  0  0  0  0
 13 42  1  0  0  0  0
 16 43  1  0  0  0  0
 16 44  1  0  0  0  0
 16 45  1  0  0  0  0
 17 46  1  0  0  0  0
 17 47  1  0  0  0  0
 17 48  1  0  0  0  0
 18 49  1  0  0  0  0
 18 50  1  0  0  0  0
 18 51  1  0  0  0  0
 23 52  1  0  0  0  0
M  END
> <id>
EN300-7428813

> <smiles>
CC(C)(C)OC(=O)N1CCC2(CCC(O)(C2)C=3C=CC(Br)=NC3)CC1

> <IUPAC Name>
tert-butyl 2-(6-bromopyridin-3-yl)-2-hydroxy-8-azaspiro[4.5]decane-8-carboxylate

> <CAS>
2309475-28-1

> <URL>
https://www.enaminestore.com/catalog/EN300-7428813

> <ROCS_ShapeQuery>
_x0404_0B

> <ROCS_TanimotoCombo>
0.437 

> <ROCS_ShapeTanimoto>
0.380 

> <ROCS_ColorTanimoto>
0.057 

> <ROCS_RefTversky>
0.333 

> <ROCS_RefColorTversky>
0.063 

> <ROCS_RefTverskyCombo>
0.396 

> <ROCS_FitTversky>
1.593 

> <ROCS_FitColorTversky>
0.369 

> <ROCS_FitTverskyCombo>
1.962 

> <ROCS_ColorScore>
-4.553

> <ROCS_Overlap>
2224.480

> <ROCS_Rank>
278                 

$$$$
untitled-dbase-139008_382
  -OEChem-08222312023D

 52 54  0     1  0  0  0  0  0999 V2000
   -9.0893    5.4403   -7.9640 C   0  0  0  0  0  0  0  0  0  0  0  0
   -9.1123    3.8124   -9.7417 C   0  0  0  0  0  0  0  0  0  0  0  0
   -9.1981    4.1183   -8.3849 C   0  0  0  0  0  0  0  0  0  0  0  0
   -8.8078    6.1627  -10.2721 C   0  0  0  0  0  0  0  0  0  0  0  0
   -8.8923    6.4553   -8.9006 C   0  0  0  0  0  0  0  0  0  0  0  0
   -8.9266    4.8291  -10.6845 C   0  0  0  0  0  0  0  0  0  0  0  0
   -9.3825    3.0553   -7.4096 C   0  0  0  0  0  0  0  0  0  0  0  0
   -8.8945    5.4155  -16.6951 C   0  0  0  0  0  0  0  0  0  0  0  0
  -10.4448    5.6337  -13.3514 C   0  0  0  0  0  0  0  0  0  0  0  0
   -8.1732    6.6960  -12.6203 C   0  0  0  0  0  0  0  0  0  0  0  0
  -10.4157    6.0972  -14.7986 C   0  0  0  0  0  0  0  0  0  0  0  0
   -8.4187    4.8488  -14.3122 C   0  0  0  0  0  0  0  0  0  0  0  0
   -8.5776    7.2778  -11.2614 C   0  0  1  0  0  0  0  0  0  0  0  0
   -8.9603    5.4257  -12.9900 C   0  0  2  0  0  0  0  0  0  0  0  0
   -8.7352    7.8436   -8.3652 C   0  0  0  0  0  0  0  0  0  0  0  0
   -7.5908    6.5735  -18.9599 C   0  0  0  0  0  0  0  0  0  0  0  0
   -5.5666    5.2813  -18.2237 C   0  0  0  0  0  0  0  0  0  0  0  0
   -7.6559    4.0584  -18.8927 C   0  0  0  0  0  0  0  0  0  0  0  0
   -7.0932    5.3206  -18.2407 C   0  0  0  0  0  0  0  0  0  0  0  0
   -9.2324    5.4569  -15.3534 N   0  0  0  0  0  0  0  0  0  0  0  0
   -9.7530    8.1416  -11.3867 N   0  0  0  0  0  0  0  0  0  0  0  0
   -9.4564    3.2105   -6.1861 O   0  0  0  0  0  0  0  0  0  0  0  0
   -9.7112    5.4179  -17.6133 O   0  0  0  0  0  0  0  0  0  0  0  0
   -8.8364    4.4140  -11.9861 O   0  0  0  0  0  0  0  0  0  0  0  0
   -9.4709    1.8266   -7.9892 O   0  0  0  0  0  0  0  0  0  0  0  0
   -7.5387    5.3686  -16.8806 O   0  0  0  0  0  0  0  0  0  0  0  0
   -9.1499    5.6796   -6.9052 H   0  0  0  0  0  0  0  0  0  0  0  0
   -9.1761    2.7766  -10.0705 H   0  0  0  0  0  0  0  0  0  0  0  0
  -10.8939    6.4171  -12.7241 H   0  0  0  0  0  0  0  0  0  0  0  0
  -11.0376    4.7165  -13.2427 H   0  0  0  0  0  0  0  0  0  0  0  0
   -8.3494    7.4472  -13.4172 H   0  0  0  0  0  0  0  0  0  0  0  0
   -7.0849    6.4922  -12.6353 H   0  0  0  0  0  0  0  0  0  0  0  0
  -11.2829    5.7350  -15.3592 H   0  0  0  0  0  0  0  0  0  0  0  0
  -10.3542    7.1829  -14.9031 H   0  0  0  0  0  0  0  0  0  0  0  0
   -7.3794    5.1493  -14.4972 H   0  0  0  0  0  0  0  0  0  0  0  0
   -8.4930    3.7572  -14.3822 H   0  0  0  0  0  0  0  0  0  0  0  0
   -7.7483    7.8882  -10.8555 H   0  0  0  0  0  0  0  0  0  0  0  0
   -7.6789    8.0537   -8.1675 H   0  0  0  0  0  0  0  0  0  0  0  0
   -9.1146    8.5849   -9.0773 H   0  0  0  0  0  0  0  0  0  0  0  0
   -9.3002    7.9720   -7.4350 H   0  0  0  0  0  0  0  0  0  0  0  0
   -8.6862    6.6055  -18.9743 H   0  0  0  0  0  0  0  0  0  0  0  0
   -7.2226    7.4867  -18.4809 H   0  0  0  0  0  0  0  0  0  0  0  0
   -7.2677    6.5776  -20.0072 H   0  0  0  0  0  0  0  0  0  0  0  0
   -5.2052    4.3839  -17.7086 H   0  0  0  0  0  0  0  0  0  0  0  0
   -5.1603    6.1377  -17.6735 H   0  0  0  0  0  0  0  0  0  0  0  0
   -5.1509    5.2909  -19.2364 H   0  0  0  0  0  0  0  0  0  0  0  0
   -7.2991    3.1595  -18.3770 H   0  0  0  0  0  0  0  0  0  0  0  0
   -8.7507    4.0521  -18.8808 H   0  0  0  0  0  0  0  0  0  0  0  0
   -7.3185    3.9731  -19.9320 H   0  0  0  0  0  0  0  0  0  0  0  0
   -9.9736    8.4866  -10.4850 H   0  0  0  0  0  0  0  0  0  0  0  0
   -9.5213    8.8808  -12.0037 H   0  0  0  0  0  0  0  0  0  0  0  0
   -9.5963    1.1024   -7.3395 H   0  0  0  0  0  0  0  0  0  0  0  0
  1  3  1  0  0  0  0
  1  5  2  0  0  0  0
  2  3  2  0  0  0  0
  2  6  1  0  0  0  0
  3  7  1  0  0  0  0
  4  5  1  0  0  0  0
  4  6  2  0  0  0  0
  4 13  1  0  0  0  0
  5 15  1  0  0  0  0
  6 24  1  0  0  0  0
  7 22  2  0  0  0  0
  7 25  1  0  0  0  0
  8 20  1  0  0  0  0
  8 23  2  0  0  0  0
  8 26  1  0  0  0  0
  9 11  1  0  0  0  0
  9 14  1  0  0  0  0
 10 13  1  0  0  0  0
 10 14  1  0  0  0  0
 11 20  1  0  0  0  0
 12 14  1  0  0  0  0
 12 20  1  0  0  0  0
 13 21  1  0  0  0  0
 14 24  1  0  0  0  0
 16 19  1  0  0  0  0
 17 19  1  0  0  0  0
 18 19  1  0  0  0  0
 19 26  1  0  0  0  0
  1 27  1  0  0  0  0
  2 28  1  0  0  0  0
  9 29  1  0  0  0  0
  9 30  1  0  0  0  0
 10 31  1  0  0  0  0
 10 32  1  0  0  0  0
 11 33  1  0  0  0  0
 11 34  1  0  0  0  0
 12 35  1  0  0  0  0
 12 36  1  0  0  0  0
 13 37  1  0  0  0  0
 15 38  1  0  0  0  0
 15 39  1  0  0  0  0
 15 40  1  0  0  0  0
 16 41  1  0  0  0  0
 16 42  1  0  0  0  0
 16 43  1  0  0  0  0
 17 44  1  0  0  0  0
 17 45  1  0  0  0  0
 17 46  1  0  0  0  0
 18 47  1  0  0  0  0
 18 48  1  0  0  0  0
 18 49  1  0  0  0  0
 21 50  1  0  0  0  0
 21 51  1  0  0  0  0
 25 52  1  0  0  0  0
M  END
> <id>
EN300-1129091

> <smiles>
CC=1C=C(C=C2OC3(CCN(C3)C(=O)OC(C)(C)C)CC(N)C12)C(=O)O

> <IUPAC Name>
4-amino-1'-[(tert-butoxy)carbonyl]-5-methyl-3,4-dihydrospiro[1-benzopyran-2,3'-pyrrolidine]-7-carboxylic acid

> <CAS>
2137668-01-8

> <URL>
https://www.enaminestore.com/catalog/EN300-1129091

> <ROCS_ShapeQuery>
_x0404_0B

> <ROCS_TanimotoCombo>
0.437 

> <ROCS_ShapeTanimoto>
0.394 

> <ROCS_ColorTanimoto>
0.043 

> <ROCS_RefTversky>
0.345 

> <ROCS_RefColorTversky>
0.049 

> <ROCS_RefTverskyCombo>
0.394 

> <ROCS_FitTversky>
1.568 

> <ROCS_FitColorTversky>
0.250 

> <ROCS_FitTverskyCombo>
1.819 

> <ROCS_ColorScore>
-3.569

> <ROCS_Overlap>
2304.152

> <ROCS_Rank>
279                 

$$$$
untitled-dbase-103714_942
  -OEChem-08222312023D

 52 54  0     0  0  0  0  0  0999 V2000
   -8.9663    3.9635   -9.0800 B   0  0  0  0  0  0  0  0  0  0  0  0
   -8.7474    3.8702  -11.6935 C   0  0  0  0  0  0  0  0  0  0  0  0
   -8.8535    4.6627  -10.6136 C   0  0  0  0  0  0  0  0  0  0  0  0
   -9.4645    6.3555  -14.3661 C   0  0  0  0  0  0  0  0  0  0  0  0
   -8.6659    4.4025  -13.0953 C   0  0  0  0  0  0  0  0  0  0  0  0
   -8.8584    6.1680  -10.7035 C   0  0  0  0  0  0  0  0  0  0  0  0
   -6.9403    5.5656  -16.9451 C   0  0  0  0  0  0  0  0  0  0  0  0
   -7.7528    5.3058  -18.2147 C   0  0  0  0  0  0  0  0  0  0  0  0
   -8.4142    6.6494  -12.0854 C   0  0  0  0  0  0  0  0  0  0  0  0
   -7.6665    5.1255  -15.6769 C   0  0  0  0  0  0  0  0  0  0  0  0
   -9.7050    6.0533  -16.7938 C   0  0  0  0  0  0  0  0  0  0  0  0
   -9.2430    5.1790  -17.9415 C   0  0  0  0  0  0  0  0  0  0  0  0
   -9.2617    2.3786   -7.4553 C   0  0  0  0  0  0  0  0  0  0  0  0
   -8.9587    3.7678   -6.7995 C   0  0  0  0  0  0  0  0  0  0  0  0
  -10.7381    1.9296   -7.3732 C   0  0  0  0  0  0  0  0  0  0  0  0
   -8.3896    1.2238   -6.9425 C   0  0  0  0  0  0  0  0  0  0  0  0
   -7.5304    3.9194   -6.2293 C   0  0  0  0  0  0  0  0  0  0  0  0
   -9.9494    4.1896   -5.7052 C   0  0  0  0  0  0  0  0  0  0  0  0
   -9.0021    5.8278  -13.1507 N   0  0  0  0  0  0  0  0  0  0  0  0
   -8.9847    5.7701  -15.5495 N   0  0  0  0  0  0  0  0  0  0  0  0
  -10.2502    7.3121  -14.3943 O   0  0  0  0  0  0  0  0  0  0  0  0
   -8.9549    2.5862   -8.8723 O   0  0  0  0  0  0  0  0  0  0  0  0
   -9.0790    4.7133   -7.9115 O   0  0  0  0  0  0  0  0  0  0  0  0
   -9.9377    5.4852  -19.0647 F   0  0  0  0  0  0  0  0  0  0  0  0
   -9.5390    3.8834  -17.6536 F   0  0  0  0  0  0  0  0  0  0  0  0
   -8.7275    2.7876  -11.5931 H   0  0  0  0  0  0  0  0  0  0  0  0
   -7.6447    4.2713  -13.4784 H   0  0  0  0  0  0  0  0  0  0  0  0
   -9.3575    3.8228  -13.7190 H   0  0  0  0  0  0  0  0  0  0  0  0
   -9.8714    6.5389  -10.4946 H   0  0  0  0  0  0  0  0  0  0  0  0
   -8.1878    6.6062   -9.9525 H   0  0  0  0  0  0  0  0  0  0  0  0
   -5.9695    5.0410  -17.0138 H   0  0  0  0  0  0  0  0  0  0  0  0
   -6.6981    6.6410  -16.8793 H   0  0  0  0  0  0  0  0  0  0  0  0
   -7.5808    6.1197  -18.9399 H   0  0  0  0  0  0  0  0  0  0  0  0
   -7.3857    4.3866  -18.7009 H   0  0  0  0  0  0  0  0  0  0  0  0
   -8.6773    7.7062  -12.2225 H   0  0  0  0  0  0  0  0  0  0  0  0
   -7.3221    6.5754  -12.1873 H   0  0  0  0  0  0  0  0  0  0  0  0
   -7.7730    4.0348  -15.6602 H   0  0  0  0  0  0  0  0  0  0  0  0
   -7.0868    5.4081  -14.7887 H   0  0  0  0  0  0  0  0  0  0  0  0
   -9.5593    7.1206  -17.0344 H   0  0  0  0  0  0  0  0  0  0  0  0
  -10.7851    5.8886  -16.6663 H   0  0  0  0  0  0  0  0  0  0  0  0
  -10.8385    0.9639   -7.8526 H   0  0  0  0  0  0  0  0  0  0  0  0
  -11.3559    2.6607   -7.8794 H   0  0  0  0  0  0  0  0  0  0  0  0
  -11.0259    1.8582   -6.3318 H   0  0  0  0  0  0  0  0  0  0  0  0
   -8.6699    0.3061   -7.4512 H   0  0  0  0  0  0  0  0  0  0  0  0
   -8.5386    1.1060   -5.8732 H   0  0  0  0  0  0  0  0  0  0  0  0
   -7.3448    1.4445   -7.1413 H   0  0  0  0  0  0  0  0  0  0  0  0
   -7.4261    4.9089   -5.8021 H   0  0  0  0  0  0  0  0  0  0  0  0
   -6.8160    3.7851   -7.0318 H   0  0  0  0  0  0  0  0  0  0  0  0
   -7.3757    3.1676   -5.4655 H   0  0  0  0  0  0  0  0  0  0  0  0
   -9.6608    5.1596   -5.3111 H   0  0  0  0  0  0  0  0  0  0  0  0
   -9.9383    3.4550   -4.9053 H   0  0  0  0  0  0  0  0  0  0  0  0
  -10.9484    4.2519   -6.1271 H   0  0  0  0  0  0  0  0  0  0  0  0
  1  3  1  0  0  0  0
  1 22  1  0  0  0  0
  1 23  1  0  0  0  0
  2  3  2  0  0  0  0
  2  5  1  0  0  0  0
  3  6  1  0  0  0  0
  4 19  1  0  0  0  0
  4 20  1  0  0  0  0
  4 21  2  0  0  0  0
  5 19  1  0  0  0  0
  6  9  1  0  0  0  0
  7  8  1  0  0  0  0
  7 10  1  0  0  0  0
  8 12  1  0  0  0  0
  9 19  1  0  0  0  0
 10 20  1  0  0  0  0
 11 12  1  0  0  0  0
 11 20  1  0  0  0  0
 12 24  1  0  0  0  0
 12 25  1  0  0  0  0
 13 14  1  0  0  0  0
 13 15  1  0  0  0  0
 13 16  1  0  0  0  0
 13 22  1  0  0  0  0
 14 17  1  0  0  0  0
 14 18  1  0  0  0  0
 14 23  1  0  0  0  0
  2 26  1  0  0  0  0
  5 27  1  0  0  0  0
  5 28  1  0  0  0  0
  6 29  1  0  0  0  0
  6 30  1  0  0  0  0
  7 31  1  0  0  0  0
  7 32  1  0  0  0  0
  8 33  1  0  0  0  0
  8 34  1  0  0  0  0
  9 35  1  0  0  0  0
  9 36  1  0  0  0  0
 10 37  1  0  0  0  0
 10 38  1  0  0  0  0
 11 39  1  0  0  0  0
 11 40  1  0  0  0  0
 15 41  1  0  0  0  0
 15 42  1  0  0  0  0
 15 43  1  0  0  0  0
 16 44  1  0  0  0  0
 16 45  1  0  0  0  0
 16 46  1  0  0  0  0
 17 47  1  0  0  0  0
 17 48  1  0  0  0  0
 17 49  1  0  0  0  0
 18 50  1  0  0  0  0
 18 51  1  0  0  0  0
 18 52  1  0  0  0  0
M  END
> <id>
EN300-6735549

> <smiles>
CC1(C)OB(OC1(C)C)C2=CCN(CC2)C(=O)N3CCCC(F)(F)C3

> <MDLNUMBER>
MFCD32859161

> <IUPAC Name>
1-(3,3-difluoropiperidine-1-carbonyl)-4-(tetramethyl-1,3,2-dioxaborolan-2-yl)-1,2,3,6-tetrahydropyridine

> <URL>
https://www.enaminestore.com/catalog/EN300-6735549

> <ROCS_ShapeQuery>
_x0404_0B

> <ROCS_TanimotoCombo>
0.437 

> <ROCS_ShapeTanimoto>
0.380 

> <ROCS_ColorTanimoto>
0.057 

> <ROCS_RefTversky>
0.333 

> <ROCS_RefColorTversky>
0.061 

> <ROCS_RefTverskyCombo>
0.394 

> <ROCS_FitTversky>
1.590 

> <ROCS_FitColorTversky>
0.463 

> <ROCS_FitTverskyCombo>
2.052 

> <ROCS_ColorScore>
-4.388

> <ROCS_Overlap>
2225.371

> <ROCS_Rank>
280                 

$$$$
untitled-dbase-91001_5499
  -OEChem-08222312023D

 53 55  0     1  0  0  0  0  0999 V2000
   -9.0119    1.9503   -8.5773 C   0  0  0  0  0  0  0  0  0  0  0  0
   -8.9047    2.8939   -9.5988 C   0  0  0  0  0  0  0  0  0  0  0  0
   -9.1789    2.3678   -7.2568 C   0  0  0  0  0  0  0  0  0  0  0  0
   -9.1314    4.6726   -7.9796 C   0  0  0  0  0  0  0  0  0  0  0  0
   -8.9645    4.2551   -9.3000 C   0  0  0  0  0  0  0  0  0  0  0  0
   -9.2386    3.7289   -6.9580 C   0  0  0  0  0  0  0  0  0  0  0  0
   -8.7475    5.3228  -16.3523 C   0  0  0  0  0  0  0  0  0  0  0  0
  -10.1724    8.0030  -14.1102 C   0  0  0  0  0  0  0  0  0  0  0  0
   -7.5453    5.2464  -11.2212 C   0  0  0  0  0  0  0  0  0  0  0  0
  -10.0082    7.3824  -12.7200 C   0  0  0  0  0  0  0  0  0  0  0  0
   -7.8354    6.0482  -12.4904 C   0  0  0  0  0  0  0  0  0  0  0  0
   -9.8882    5.1209  -11.5339 C   0  0  0  0  0  0  0  0  0  0  0  0
   -9.1782    7.4745  -15.1311 C   0  0  0  0  0  0  0  0  0  0  0  0
   -9.6890    5.2663  -14.0593 C   0  0  0  0  0  0  0  0  0  0  0  0
   -8.8477    5.2816  -10.4123 C   0  0  1  0  0  0  0  0  0  0  0  0
   -9.3684    5.9681  -12.7266 C   0  0  1  0  0  0  0  0  0  0  0  0
   -8.3590    5.1648  -19.1821 C   0  0  0  0  0  0  0  0  0  0  0  0
   -6.1390    6.2586  -18.7528 C   0  0  0  0  0  0  0  0  0  0  0  0
   -6.6327    4.0019  -17.7670 C   0  0  0  0  0  0  0  0  0  0  0  0
   -7.2232    5.3503  -18.1769 C   0  0  0  0  0  0  0  0  0  0  0  0
   -9.1978    6.0122  -15.2212 N   0  0  0  0  0  0  0  0  0  0  0  0
   -9.1861    4.2351  -16.7214 O   0  0  0  0  0  0  0  0  0  0  0  0
   -8.9939    6.5803   -9.8315 O   0  0  0  0  0  0  0  0  0  0  0  0
   -7.7482    5.9920  -17.0093 O   0  0  0  0  0  0  0  0  0  0  0  0
   -9.4648    4.2939   -5.1687 Br  0  0  0  0  0  0  0  0  0  0  0  0
   -8.9653    0.8905   -8.8100 H   0  0  0  0  0  0  0  0  0  0  0  0
   -8.7749    2.5594  -10.6246 H   0  0  0  0  0  0  0  0  0  0  0  0
   -9.2607    1.6195   -6.4727 H   0  0  0  0  0  0  0  0  0  0  0  0
   -9.1771    5.7357   -7.7542 H   0  0  0  0  0  0  0  0  0  0  0  0
  -11.2012    7.8288  -14.4754 H   0  0  0  0  0  0  0  0  0  0  0  0
  -10.0695    9.1002  -14.0306 H   0  0  0  0  0  0  0  0  0  0  0  0
   -7.2641    4.2152  -11.4906 H   0  0  0  0  0  0  0  0  0  0  0  0
   -6.6984    5.6863  -10.6725 H   0  0  0  0  0  0  0  0  0  0  0  0
   -9.3837    8.0553  -12.1069 H   0  0  0  0  0  0  0  0  0  0  0  0
  -10.9907    7.3509  -12.2195 H   0  0  0  0  0  0  0  0  0  0  0  0
   -7.5195    7.0959  -12.3443 H   0  0  0  0  0  0  0  0  0  0  0  0
   -7.2548    5.6684  -13.3474 H   0  0  0  0  0  0  0  0  0  0  0  0
   -9.9979    4.0726  -11.8242 H   0  0  0  0  0  0  0  0  0  0  0  0
  -10.8677    5.4679  -11.1937 H   0  0  0  0  0  0  0  0  0  0  0  0
   -9.3759    7.9249  -16.1157 H   0  0  0  0  0  0  0  0  0  0  0  0
   -8.1517    7.7644  -14.8535 H   0  0  0  0  0  0  0  0  0  0  0  0
   -9.2021    4.2770  -14.1007 H   0  0  0  0  0  0  0  0  0  0  0  0
  -10.7687    5.0725  -14.1477 H   0  0  0  0  0  0  0  0  0  0  0  0
   -9.1393    4.5134  -18.7725 H   0  0  0  0  0  0  0  0  0  0  0  0
   -8.8141    6.1217  -19.4576 H   0  0  0  0  0  0  0  0  0  0  0  0
   -7.9975    4.6778  -20.0950 H   0  0  0  0  0  0  0  0  0  0  0  0
   -5.3220    6.3945  -18.0349 H   0  0  0  0  0  0  0  0  0  0  0  0
   -6.5371    7.2585  -18.9602 H   0  0  0  0  0  0  0  0  0  0  0  0
   -5.7219    5.8523  -19.6799 H   0  0  0  0  0  0  0  0  0  0  0  0
   -5.8179    4.1347  -17.0461 H   0  0  0  0  0  0  0  0  0  0  0  0
   -7.3890    3.3503  -17.3176 H   0  0  0  0  0  0  0  0  0  0  0  0
   -6.1991    3.4872  -18.6321 H   0  0  0  0  0  0  0  0  0  0  0  0
   -9.8709    6.6031   -9.4166 H   0  0  0  0  0  0  0  0  0  0  0  0
  1  2  1  0  0  0  0
  1  3  2  0  0  0  0
  2  5  2  0  0  0  0
  3  6  1  0  0  0  0
  4  5  1  0  0  0  0
  4  6  2  0  0  0  0
  5 15  1  0  0  0  0
  6 25  1  0  0  0  0
  7 21  1  0  0  0  0
  7 22  2  0  0  0  0
  7 24  1  0  0  0  0
  8 10  1  0  0  0  0
  8 13  1  0  0  0  0
  9 11  1  0  0  0  0
  9 15  1  0  0  0  0
 10 16  1  0  0  0  0
 11 16  1  0  0  0  0
 12 15  1  0  0  0  0
 12 16  1  0  0  0  0
 13 21  1  0  0  0  0
 14 16  1  0  0  0  0
 14 21  1  0  0  0  0
 15 23  1  0  0  0  0
 17 20  1  0  0  0  0
 18 20  1  0  0  0  0
 19 20  1  0  0  0  0
 20 24  1  0  0  0  0
  1 26  1  0  0  0  0
  2 27  1  0  0  0  0
  3 28  1  0  0  0  0
  4 29  1  0  0  0  0
  8 30  1  0  0  0  0
  8 31  1  0  0  0  0
  9 32  1  0  0  0  0
  9 33  1  0  0  0  0
 10 34  1  0  0  0  0
 10 35  1  0  0  0  0
 11 36  1  0  0  0  0
 11 37  1  0  0  0  0
 12 38  1  0  0  0  0
 12 39  1  0  0  0  0
 13 40  1  0  0  0  0
 13 41  1  0  0  0  0
 14 42  1  0  0  0  0
 14 43  1  0  0  0  0
 17 44  1  0  0  0  0
 17 45  1  0  0  0  0
 17 46  1  0  0  0  0
 18 47  1  0  0  0  0
 18 48  1  0  0  0  0
 18 49  1  0  0  0  0
 19 50  1  0  0  0  0
 19 51  1  0  0  0  0
 19 52  1  0  0  0  0
 23 53  1  0  0  0  0
M  END
> <id>
EN300-7428799

> <smiles>
CC(C)(C)OC(=O)N1CCCC2(CCC(O)(C2)C=3C=CC=C(Br)C3)C1

> <IUPAC Name>
tert-butyl 2-(3-bromophenyl)-2-hydroxy-7-azaspiro[4.5]decane-7-carboxylate

> <CAS>
2309469-52-9

> <URL>
https://www.enaminestore.com/catalog/EN300-7428799

> <ROCS_ShapeQuery>
_x0404_0B

> <ROCS_TanimotoCombo>
0.437 

> <ROCS_ShapeTanimoto>
0.388 

> <ROCS_ColorTanimoto>
0.049 

> <ROCS_RefTversky>
0.338 

> <ROCS_RefColorTversky>
0.054 

> <ROCS_RefTverskyCombo>
0.392 

> <ROCS_FitTversky>
1.621 

> <ROCS_FitColorTversky>
0.341 

> <ROCS_FitTverskyCombo>
1.962 

> <ROCS_ColorScore>
-3.876

> <ROCS_Overlap>
2257.856

> <ROCS_Rank>
281                 

$$$$
untitled-dbase-69137_26
  -OEChem-08222312023D

 33 35  0     1  0  0  0  0  0999 V2000
   -9.7084    4.8465  -15.3639 C   0  0  0  0  0  0  0  0  0  0  0  0
   -9.4537    4.7269  -16.7301 C   0  0  0  0  0  0  0  0  0  0  0  0
   -7.5385    5.8611  -15.0483 C   0  0  0  0  0  0  0  0  0  0  0  0
   -8.9721    3.1270  -10.3933 C   0  0  0  0  0  0  0  0  0  0  0  0
   -9.1956    4.2643   -8.2708 C   0  0  0  0  0  0  0  0  0  0  0  0
   -8.8300    5.5371  -10.2881 C   0  0  0  0  0  0  0  0  0  0  0  0
   -8.7508    5.4136  -14.5230 C   0  0  0  0  0  0  0  0  0  0  0  0
   -8.8204    4.3562  -11.0360 C   0  0  0  0  0  0  0  0  0  0  0  0
   -8.2415    5.1744  -17.2554 C   0  0  0  0  0  0  0  0  0  0  0  0
   -7.2839    5.7415  -16.4145 C   0  0  0  0  0  0  0  0  0  0  0  0
   -9.1646    3.0826   -9.0121 C   0  0  0  0  0  0  0  0  0  0  0  0
   -9.0244    5.4952   -8.9051 C   0  0  0  0  0  0  0  0  0  0  0  0
   -8.5865    6.8238  -10.9719 C   0  0  0  0  0  0  0  0  0  0  0  0
   -8.2846    6.7403  -12.4457 C   0  0  0  0  0  0  0  0  0  0  0  0
   -9.0281    5.5459  -13.0403 C   0  0  2  0  0  0  0  0  0  0  0  0
   -8.5739    7.8830  -10.3563 O   0  0  0  0  0  0  0  0  0  0  0  0
   -8.6393    4.3235  -12.3946 O   0  0  0  0  0  0  0  0  0  0  0  0
   -8.0050    5.0517  -18.5915 O   0  0  0  0  0  0  0  0  0  0  0  0
   -6.0960    6.1813  -16.9158 O   0  0  0  0  0  0  0  0  0  0  0  0
   -9.3233    1.8840   -8.3864 O   0  0  0  0  0  0  0  0  0  0  0  0
   -9.0492    6.6161   -8.1314 O   0  0  0  0  0  0  0  0  0  0  0  0
  -10.6562    4.4967  -14.9637 H   0  0  0  0  0  0  0  0  0  0  0  0
  -10.2039    4.2838  -17.3793 H   0  0  0  0  0  0  0  0  0  0  0  0
   -6.7906    6.3040  -14.3950 H   0  0  0  0  0  0  0  0  0  0  0  0
   -8.9504    2.2040  -10.9674 H   0  0  0  0  0  0  0  0  0  0  0  0
   -9.3464    4.2233   -7.1947 H   0  0  0  0  0  0  0  0  0  0  0  0
   -8.6051    7.6696  -12.9297 H   0  0  0  0  0  0  0  0  0  0  0  0
   -7.1983    6.6393  -12.5564 H   0  0  0  0  0  0  0  0  0  0  0  0
  -10.1256    5.6687  -12.9246 H   0  0  0  0  0  0  0  0  0  0  0  0
   -8.7661    4.6401  -19.0300 H   0  0  0  0  0  0  0  0  0  0  0  0
   -6.0614    6.0338  -17.8739 H   0  0  0  0  0  0  0  0  0  0  0  0
   -9.4463    2.0163   -7.4330 H   0  0  0  0  0  0  0  0  0  0  0  0
   -8.9204    7.4053   -8.6806 H   0  0  0  0  0  0  0  0  0  0  0  0
  1  2  1  0  0  0  0
  1  7  2  0  0  0  0
  2  9  2  0  0  0  0
  3  7  1  0  0  0  0
  3 10  2  0  0  0  0
  4  8  2  0  0  0  0
  4 11  1  0  0  0  0
  5 11  2  0  0  0  0
  5 12  1  0  0  0  0
  6  8  1  0  0  0  0
  6 12  2  0  0  0  0
  6 13  1  0  0  0  0
  7 15  1  1  0  0  0
  8 17  1  0  0  0  0
  9 10  1  0  0  0  0
  9 18  1  0  0  0  0
 10 19  1  0  0  0  0
 11 20  1  0  0  0  0
 12 21  1  0  0  0  0
 13 14  1  0  0  0  0
 13 16  2  0  0  0  0
 14 15  1  0  0  0  0
 15 17  1  0  0  0  0
  1 22  1  0  0  0  0
  2 23  1  0  0  0  0
  3 24  1  0  0  0  0
  4 25  1  0  0  0  0
  5 26  1  0  0  0  0
 14 27  1  0  0  0  0
 14 28  1  0  0  0  0
 15 29  1  0  0  0  0
 18 30  1  0  0  0  0
 19 31  1  0  0  0  0
 20 32  1  0  0  0  0
 21 33  1  0  0  0  0
M  END
> <id>
EN300-18546823

> <smiles>
OC=1C=C(O)C=2C(=O)C[C@H](OC2C1)C=3C=CC(O)=C(O)C3

> <MDLNUMBER>
MFCD00135890

> <IUPAC Name>
(2S)-2-(3,4-dihydroxyphenyl)-5,7-dihydroxy-3,4-dihydro-2H-1-benzopyran-4-one

> <CAS>
552-58-9

> <URL>
https://www.enaminestore.com/catalog/EN300-18546823

> <ROCS_ShapeQuery>
_x0404_0B

> <ROCS_TanimotoCombo>
0.437 

> <ROCS_ShapeTanimoto>
0.365 

> <ROCS_ColorTanimoto>
0.072 

> <ROCS_RefTversky>
0.318 

> <ROCS_RefColorTversky>
0.082 

> <ROCS_RefTverskyCombo>
0.400 

> <ROCS_FitTversky>
1.670 

> <ROCS_FitColorTversky>
0.368 

> <ROCS_FitTverskyCombo>
2.038 

> <ROCS_ColorScore>
-5.944

> <ROCS_Overlap>
2124.729

> <ROCS_Rank>
282                 

$$$$
untitled-dbase-156460_6
  -OEChem-08222312023D

 50 52  0     0  0  0  0  0  0999 V2000
   -8.7987    4.7447  -16.4190 B   0  0  0  0  0  0  0  0  0  0  0  0
   -8.9745    3.4615  -14.2036 C   0  0  0  0  0  0  0  0  0  0  0  0
   -9.0082    3.3799  -12.8072 C   0  0  0  0  0  0  0  0  0  0  0  0
   -8.7212    5.8720  -14.1165 C   0  0  0  0  0  0  0  0  0  0  0  0
   -8.6726    6.7384  -11.6632 C   0  0  0  0  0  0  0  0  0  0  0  0
   -8.8335    4.6871  -14.8500 C   0  0  0  0  0  0  0  0  0  0  0  0
   -8.7532    5.8066  -12.7124 C   0  0  0  0  0  0  0  0  0  0  0  0
   -8.8953    4.5735  -12.0780 C   0  0  0  0  0  0  0  0  0  0  0  0
   -9.0050    3.9526   -9.6501 C   0  0  0  0  0  0  0  0  0  0  0  0
   -9.5228    4.6939  -18.5911 C   0  0  0  0  0  0  0  0  0  0  0  0
   -7.9799    4.9543  -18.5476 C   0  0  0  0  0  0  0  0  0  0  0  0
  -10.3822    5.9354  -18.9198 C   0  0  0  0  0  0  0  0  0  0  0  0
   -9.9550    3.5598  -19.5311 C   0  0  0  0  0  0  0  0  0  0  0  0
   -7.5088    6.1542  -19.3813 C   0  0  0  0  0  0  0  0  0  0  0  0
   -7.1050    3.7391  -18.9292 C   0  0  0  0  0  0  0  0  0  0  0  0
   -7.9076    2.8044   -7.3005 C   0  0  0  0  0  0  0  0  0  0  0  0
   -8.9782    4.7247   -6.0858 C   0  0  0  0  0  0  0  0  0  0  0  0
  -10.4087    3.0826   -7.3368 C   0  0  0  0  0  0  0  0  0  0  0  0
   -9.0626    3.8047   -7.3018 C   0  0  0  0  0  0  0  0  0  0  0  0
   -8.7537    6.1736  -10.4607 N   0  0  0  0  0  0  0  0  0  0  0  0
   -8.8903    4.8479  -10.7167 N   0  0  0  0  0  0  0  0  0  0  0  0
   -9.1295    2.7540   -9.8407 O   0  0  0  0  0  0  0  0  0  0  0  0
   -9.8495    4.2977  -17.2200 O   0  0  0  0  0  0  0  0  0  0  0  0
   -7.7144    5.2476  -17.1379 O   0  0  0  0  0  0  0  0  0  0  0  0
   -8.9544    4.6235   -8.4700 O   0  0  0  0  0  0  0  0  0  0  0  0
   -9.0624    2.5339  -14.7681 H   0  0  0  0  0  0  0  0  0  0  0  0
   -9.1188    2.4168  -12.3219 H   0  0  0  0  0  0  0  0  0  0  0  0
   -8.6096    6.8383  -14.6028 H   0  0  0  0  0  0  0  0  0  0  0  0
   -8.5566    7.8112  -11.7256 H   0  0  0  0  0  0  0  0  0  0  0  0
  -11.4262    5.6484  -18.9249 H   0  0  0  0  0  0  0  0  0  0  0  0
  -10.0967    6.3120  -19.8940 H   0  0  0  0  0  0  0  0  0  0  0  0
  -10.2094    6.6919  -18.1646 H   0  0  0  0  0  0  0  0  0  0  0  0
  -11.0352    3.4530  -19.4955 H   0  0  0  0  0  0  0  0  0  0  0  0
   -9.4880    2.6314  -19.2154 H   0  0  0  0  0  0  0  0  0  0  0  0
   -9.6467    3.7945  -20.5458 H   0  0  0  0  0  0  0  0  0  0  0  0
   -6.4313    6.2563  -19.2906 H   0  0  0  0  0  0  0  0  0  0  0  0
   -7.9907    7.0574  -19.0186 H   0  0  0  0  0  0  0  0  0  0  0  0
   -7.7720    5.9956  -20.4231 H   0  0  0  0  0  0  0  0  0  0  0  0
   -6.0623    4.0242  -18.8672 H   0  0  0  0  0  0  0  0  0  0  0  0
   -7.3470    3.4361  -19.9401 H   0  0  0  0  0  0  0  0  0  0  0  0
   -7.3095    2.9292  -18.2402 H   0  0  0  0  0  0  0  0  0  0  0  0
   -7.9646    2.1422   -8.1718 H   0  0  0  0  0  0  0  0  0  0  0  0
   -6.9363    3.3097   -7.3108 H   0  0  0  0  0  0  0  0  0  0  0  0
   -7.9517    2.1573   -6.4170 H   0  0  0  0  0  0  0  0  0  0  0  0
   -9.8050    5.4441   -6.0827 H   0  0  0  0  0  0  0  0  0  0  0  0
   -8.0552    5.3154   -6.1066 H   0  0  0  0  0  0  0  0  0  0  0  0
   -9.0069    4.1594   -5.1487 H   0  0  0  0  0  0  0  0  0  0  0  0
  -11.2374    3.7999   -7.3378 H   0  0  0  0  0  0  0  0  0  0  0  0
  -10.5019    2.4458   -8.2225 H   0  0  0  0  0  0  0  0  0  0  0  0
  -10.5400    2.4596   -6.4447 H   0  0  0  0  0  0  0  0  0  0  0  0
  1  6  1  0  0  0  0
  1 23  1  0  0  0  0
  1 24  1  0  0  0  0
  2  3  1  0  0  0  0
  2  6  2  0  0  0  0
  3  8  2  0  0  0  0
  4  6  1  0  0  0  0
  4  7  2  0  0  0  0
  5  7  1  0  0  0  0
  5 20  2  0  0  0  0
  7  8  1  0  0  0  0
  8 21  1  0  0  0  0
  9 21  1  0  0  0  0
  9 22  2  0  0  0  0
  9 25  1  0  0  0  0
 10 11  1  0  0  0  0
 10 12  1  0  0  0  0
 10 13  1  0  0  0  0
 10 23  1  0  0  0  0
 11 14  1  0  0  0  0
 11 15  1  0  0  0  0
 11 24  1  0  0  0  0
 16 19  1  0  0  0  0
 17 19  1  0  0  0  0
 18 19  1  0  0  0  0
 19 25  1  0  0  0  0
 20 21  1  0  0  0  0
  2 26  1  0  0  0  0
  3 27  1  0  0  0  0
  4 28  1  0  0  0  0
  5 29  1  0  0  0  0
 12 30  1  0  0  0  0
 12 31  1  0  0  0  0
 12 32  1  0  0  0  0
 13 33  1  0  0  0  0
 13 34  1  0  0  0  0
 13 35  1  0  0  0  0
 14 36  1  0  0  0  0
 14 37  1  0  0  0  0
 14 38  1  0  0  0  0
 15 39  1  0  0  0  0
 15 40  1  0  0  0  0
 15 41  1  0  0  0  0
 16 42  1  0  0  0  0
 16 43  1  0  0  0  0
 16 44  1  0  0  0  0
 17 45  1  0  0  0  0
 17 46  1  0  0  0  0
 17 47  1  0  0  0  0
 18 48  1  0  0  0  0
 18 49  1  0  0  0  0
 18 50  1  0  0  0  0
M  END
> <id>
EN300-7357305

> <smiles>
CC(C)(C)OC(=O)N1N=CC=2C=C(C=CC12)B3OC(C)(C)C(C)(C)O3

> <MDLNUMBER>
MFCD08437629

> <IUPAC Name>
tert-butyl 5-(tetramethyl-1,3,2-dioxaborolan-2-yl)-1H-indazole-1-carboxylate

> <CAS>
864771-44-8

> <URL>
https://www.enaminestore.com/catalog/EN300-7357305

> <ROCS_ShapeQuery>
_x0404_0B

> <ROCS_TanimotoCombo>
0.437 

> <ROCS_ShapeTanimoto>
0.386 

> <ROCS_ColorTanimoto>
0.051 

> <ROCS_RefTversky>
0.338 

> <ROCS_RefColorTversky>
0.056 

> <ROCS_RefTverskyCombo>
0.394 

> <ROCS_FitTversky>
1.577 

> <ROCS_FitColorTversky>
0.355 

> <ROCS_FitTverskyCombo>
1.932 

> <ROCS_ColorScore>
-4.052

> <ROCS_Overlap>
2259.521

> <ROCS_Rank>
283                 

$$$$
untitled-dbase-103717_145
  -OEChem-08222312023D

 55 57  0     1  0  0  0  0  0999 V2000
   -8.7355    4.7440  -15.9842 B   0  0  0  0  0  0  0  0  0  0  0  0
   -8.7564    3.5619   -7.3667 C   0  0  0  0  0  0  0  0  0  0  0  0
   -8.9587    5.0680  -10.8989 C   0  0  0  0  0  0  0  0  0  0  0  0
   -8.2788    3.0690  -13.9256 C   0  0  0  0  0  0  0  0  0  0  0  0
   -8.7021    3.0547  -12.4604 C   0  0  0  0  0  0  0  0  0  0  0  0
   -9.4222    1.9119   -9.1229 C   0  0  0  0  0  0  0  0  0  0  0  0
  -10.0147    3.0720   -9.8774 C   0  0  0  0  0  0  0  0  0  0  0  0
   -9.1369    5.2402  -13.3721 C   0  0  0  0  0  0  0  0  0  0  0  0
   -9.1031    4.2216  -14.5145 C   0  0  1  0  0  0  0  0  0  0  0  0
   -8.8408    4.7138   -8.4030 C   0  0  0  0  0  0  0  0  0  0  0  0
   -8.5276    4.7911  -18.2626 C   0  0  0  0  0  0  0  0  0  0  0  0
   -7.9413    6.1046  -17.6442 C   0  0  0  0  0  0  0  0  0  0  0  0
   -7.4680    5.4189   -8.3536 C   0  0  0  0  0  0  0  0  0  0  0  0
   -9.9378    5.6772   -7.9138 C   0  0  0  0  0  0  0  0  0  0  0  0
   -9.9042    4.9529  -18.9460 C   0  0  0  0  0  0  0  0  0  0  0  0
   -7.5940    4.0748  -19.2488 C   0  0  0  0  0  0  0  0  0  0  0  0
   -8.4626    7.4008  -18.2807 C   0  0  0  0  0  0  0  0  0  0  0  0
   -6.3978    6.1775  -17.6175 C   0  0  0  0  0  0  0  0  0  0  0  0
   -9.0956    2.2926   -7.7698 N   0  0  0  0  0  0  0  0  0  0  0  0
   -9.0254    4.4478  -12.1503 N   0  0  0  0  0  0  0  0  0  0  0  0
   -9.1285    4.2298   -9.7782 N   0  0  0  0  0  0  0  0  0  0  0  0
   -8.4405    3.7849   -6.1933 O   0  0  0  0  0  0  0  0  0  0  0  0
   -8.7125    6.2749  -10.7969 O   0  0  0  0  0  0  0  0  0  0  0  0
   -8.7238    3.9163  -17.1047 O   0  0  0  0  0  0  0  0  0  0  0  0
   -8.3927    6.0677  -16.2516 O   0  0  0  0  0  0  0  0  0  0  0  0
   -7.2030    3.2737  -14.0018 H   0  0  0  0  0  0  0  0  0  0  0  0
   -8.4776    2.1106  -14.4173 H   0  0  0  0  0  0  0  0  0  0  0  0
   -9.6098    2.4556  -12.3511 H   0  0  0  0  0  0  0  0  0  0  0  0
   -7.9160    2.6749  -11.8041 H   0  0  0  0  0  0  0  0  0  0  0  0
  -10.1114    1.0556   -9.0798 H   0  0  0  0  0  0  0  0  0  0  0  0
   -8.4950    1.5644   -9.6012 H   0  0  0  0  0  0  0  0  0  0  0  0
  -10.1145    2.8152  -10.9284 H   0  0  0  0  0  0  0  0  0  0  0  0
  -10.9848    3.3091   -9.4534 H   0  0  0  0  0  0  0  0  0  0  0  0
   -8.2872    5.9332  -13.4055 H   0  0  0  0  0  0  0  0  0  0  0  0
  -10.0599    5.8294  -13.3456 H   0  0  0  0  0  0  0  0  0  0  0  0
  -10.1294    3.8388  -14.6209 H   0  0  0  0  0  0  0  0  0  0  0  0
   -7.4669    6.2386   -9.0618 H   0  0  0  0  0  0  0  0  0  0  0  0
   -6.6956    4.7052   -8.6136 H   0  0  0  0  0  0  0  0  0  0  0  0
   -7.3010    5.7958   -7.3518 H   0  0  0  0  0  0  0  0  0  0  0  0
  -10.0259    6.4982   -8.6155 H   0  0  0  0  0  0  0  0  0  0  0  0
   -9.6654    6.0558   -6.9358 H   0  0  0  0  0  0  0  0  0  0  0  0
  -10.8777    5.1413   -7.8533 H   0  0  0  0  0  0  0  0  0  0  0  0
  -10.2169    3.9929  -19.3372 H   0  0  0  0  0  0  0  0  0  0  0  0
   -9.8137    5.6700  -19.7522 H   0  0  0  0  0  0  0  0  0  0  0  0
  -10.6200    5.3060  -18.2142 H   0  0  0  0  0  0  0  0  0  0  0  0
   -8.0826    3.1802  -19.6237 H   0  0  0  0  0  0  0  0  0  0  0  0
   -6.6743    3.8001  -18.7407 H   0  0  0  0  0  0  0  0  0  0  0  0
   -7.3665    4.7387  -20.0777 H   0  0  0  0  0  0  0  0  0  0  0  0
   -8.0034    8.2541  -17.7901 H   0  0  0  0  0  0  0  0  0  0  0  0
   -9.5411    7.4521  -18.1636 H   0  0  0  0  0  0  0  0  0  0  0  0
   -8.2111    7.4108  -19.3372 H   0  0  0  0  0  0  0  0  0  0  0  0
   -6.0986    7.1187  -17.1737 H   0  0  0  0  0  0  0  0  0  0  0  0
   -6.0258    6.1112  -18.6321 H   0  0  0  0  0  0  0  0  0  0  0  0
   -6.0177    5.3524  -17.0283 H   0  0  0  0  0  0  0  0  0  0  0  0
   -9.1068    1.5503   -7.0498 H   0  0  0  0  0  0  0  0  0  0  0  0
  1  9  1  0  0  0  0
  1 24  1  0  0  0  0
  1 25  1  0  0  0  0
  2 10  1  0  0  0  0
  2 19  1  0  0  0  0
  2 22  2  0  0  0  0
  3 20  1  0  0  0  0
  3 21  1  0  0  0  0
  3 23  2  0  0  0  0
  4  5  1  0  0  0  0
  4  9  1  0  0  0  0
  5 20  1  0  0  0  0
  6  7  1  0  0  0  0
  6 19  1  0  0  0  0
  7 21  1  0  0  0  0
  8  9  1  0  0  0  0
  8 20  1  0  0  0  0
 10 13  1  0  0  0  0
 10 14  1  0  0  0  0
 10 21  1  0  0  0  0
 11 12  1  0  0  0  0
 11 15  1  0  0  0  0
 11 16  1  0  0  0  0
 11 24  1  0  0  0  0
 12 17  1  0  0  0  0
 12 18  1  0  0  0  0
 12 25  1  0  0  0  0
  4 26  1  0  0  0  0
  4 27  1  0  0  0  0
  5 28  1  0  0  0  0
  5 29  1  0  0  0  0
  6 30  1  0  0  0  0
  6 31  1  0  0  0  0
  7 32  1  0  0  0  0
  7 33  1  0  0  0  0
  8 34  1  0  0  0  0
  8 35  1  0  0  0  0
  9 36  1  0  0  0  0
 13 37  1  0  0  0  0
 13 38  1  0  0  0  0
 13 39  1  0  0  0  0
 14 40  1  0  0  0  0
 14 41  1  0  0  0  0
 14 42  1  0  0  0  0
 15 43  1  0  0  0  0
 15 44  1  0  0  0  0
 15 45  1  0  0  0  0
 16 46  1  0  0  0  0
 16 47  1  0  0  0  0
 16 48  1  0  0  0  0
 17 49  1  0  0  0  0
 17 50  1  0  0  0  0
 17 51  1  0  0  0  0
 18 52  1  0  0  0  0
 18 53  1  0  0  0  0
 18 54  1  0  0  0  0
 19 55  1  0  0  0  0
M  END
> <id>
EN300-6735624

> <smiles>
CC1(C)OB(OC1(C)C)C2CCN(C2)C(=O)N3CCNC(=O)C3(C)C

> <MDLNUMBER>
MFCD32859022

> <IUPAC Name>
3,3-dimethyl-4-[3-(tetramethyl-1,3,2-dioxaborolan-2-yl)pyrrolidine-1-carbonyl]piperazin-2-one

> <URL>
https://www.enaminestore.com/catalog/EN300-6735624

> <ROCS_ShapeQuery>
_x0404_0B

> <ROCS_TanimotoCombo>
0.437 

> <ROCS_ShapeTanimoto>
0.373 

> <ROCS_ColorTanimoto>
0.064 

> <ROCS_RefTversky>
0.329 

> <ROCS_RefColorTversky>
0.070 

> <ROCS_RefTverskyCombo>
0.399 

> <ROCS_FitTversky>
1.566 

> <ROCS_FitColorTversky>
0.411 

> <ROCS_FitTverskyCombo>
1.977 

> <ROCS_ColorScore>
-5.065

> <ROCS_Overlap>
2196.192

> <ROCS_Rank>
284                 

$$$$
untitled-dbase-107160_6
  -OEChem-08222312023D

 40 41  0     0  0  0  0  0  0999 V2000
   -8.9148    5.3533  -12.8351 C   0  0  0  0  0  0  0  0  0  0  0  0
   -7.7666    3.0259  -11.6588 C   0  0  0  0  0  0  0  0  0  0  0  0
   -8.7941    5.2144  -11.4670 C   0  0  0  0  0  0  0  0  0  0  0  0
   -8.2319    4.0744  -10.8908 C   0  0  0  0  0  0  0  0  0  0  0  0
   -8.4484    4.3010  -13.6283 C   0  0  0  0  0  0  0  0  0  0  0  0
   -7.8803    3.1499  -13.0464 C   0  0  0  0  0  0  0  0  0  0  0  0
   -8.8354    5.4953   -9.1807 C   0  0  0  0  0  0  0  0  0  0  0  0
   -8.5249    5.5518  -15.8055 C   0  0  0  0  0  0  0  0  0  0  0  0
   -6.2873    5.5775  -17.1719 C   0  0  0  0  0  0  0  0  0  0  0  0
   -7.5053    4.5241  -19.0996 C   0  0  0  0  0  0  0  0  0  0  0  0
   -7.8705    6.9509  -18.5653 C   0  0  0  0  0  0  0  0  0  0  0  0
   -9.7832    7.3776  -10.6101 C   0  0  0  0  0  0  0  0  0  0  0  0
   -7.7610    3.2778   -8.5380 C   0  0  0  0  0  0  0  0  0  0  0  0
   -7.5800    5.5670  -17.9864 C   0  0  0  0  0  0  0  0  0  0  0  0
   -9.1660    6.0880  -10.4330 N   0  0  0  0  0  0  0  0  0  0  0  0
   -8.2519    4.2348   -9.4963 N   0  0  0  0  0  0  0  0  0  0  0  0
   -8.5532    4.4053  -15.0183 N   0  0  0  0  0  0  0  0  0  0  0  0
   -9.0149    5.9695   -8.0670 O   0  0  0  0  0  0  0  0  0  0  0  0
   -8.4011    6.7095  -15.4248 O   0  0  0  0  0  0  0  0  0  0  0  0
   -7.4286    2.1298  -13.8338 O   0  0  0  0  0  0  0  0  0  0  0  0
   -8.6607    5.1984  -17.1216 O   0  0  0  0  0  0  0  0  0  0  0  0
   -9.3526    6.2412  -13.2783 H   0  0  0  0  0  0  0  0  0  0  0  0
   -7.3298    2.1400  -11.2119 H   0  0  0  0  0  0  0  0  0  0  0  0
   -6.3369    6.3247  -16.3718 H   0  0  0  0  0  0  0  0  0  0  0  0
   -6.0858    4.5996  -16.7224 H   0  0  0  0  0  0  0  0  0  0  0  0
   -5.4319    5.8528  -17.7994 H   0  0  0  0  0  0  0  0  0  0  0  0
   -8.4308    4.5132  -19.6866 H   0  0  0  0  0  0  0  0  0  0  0  0
   -7.3918    3.5166  -18.6835 H   0  0  0  0  0  0  0  0  0  0  0  0
   -6.6672    4.7159  -19.7773 H   0  0  0  0  0  0  0  0  0  0  0  0
   -8.7977    6.9437  -19.1496 H   0  0  0  0  0  0  0  0  0  0  0  0
   -7.9641    7.7059  -17.7779 H   0  0  0  0  0  0  0  0  0  0  0  0
   -7.0746    7.2609  -19.2521 H   0  0  0  0  0  0  0  0  0  0  0  0
  -10.8772    7.2631  -10.6177 H   0  0  0  0  0  0  0  0  0  0  0  0
   -9.4899    8.0410   -9.7832 H   0  0  0  0  0  0  0  0  0  0  0  0
   -9.4537    7.8137  -11.5646 H   0  0  0  0  0  0  0  0  0  0  0  0
   -6.6991    3.4769   -8.3313 H   0  0  0  0  0  0  0  0  0  0  0  0
   -8.3383    3.3636   -7.6056 H   0  0  0  0  0  0  0  0  0  0  0  0
   -7.8709    2.2619   -8.9452 H   0  0  0  0  0  0  0  0  0  0  0  0
   -8.6657    3.5216  -15.5234 H   0  0  0  0  0  0  0  0  0  0  0  0
   -7.0700    1.4184  -13.2822 H   0  0  0  0  0  0  0  0  0  0  0  0
  1  3  2  0  0  0  0
  1  5  1  0  0  0  0
  2  4  2  0  0  0  0
  2  6  1  0  0  0  0
  3  4  1  0  0  0  0
  3 15  1  0  0  0  0
  4 16  1  0  0  0  0
  5  6  2  0  0  0  0
  5 17  1  0  0  0  0
  6 20  1  0  0  0  0
  7 15  1  0  0  0  0
  7 16  1  0  0  0  0
  7 18  2  0  0  0  0
  8 17  1  0  0  0  0
  8 19  2  0  0  0  0
  8 21  1  0  0  0  0
  9 14  1  0  0  0  0
 10 14  1  0  0  0  0
 11 14  1  0  0  0  0
 12 15  1  0  0  0  0
 13 16  1  0  0  0  0
 14 21  1  0  0  0  0
  1 22  1  0  0  0  0
  2 23  1  0  0  0  0
  9 24  1  0  0  0  0
  9 25  1  0  0  0  0
  9 26  1  0  0  0  0
 10 27  1  0  0  0  0
 10 28  1  0  0  0  0
 10 29  1  0  0  0  0
 11 30  1  0  0  0  0
 11 31  1  0  0  0  0
 11 32  1  0  0  0  0
 12 33  1  0  0  0  0
 12 34  1  0  0  0  0
 12 35  1  0  0  0  0
 13 36  1  0  0  0  0
 13 37  1  0  0  0  0
 13 38  1  0  0  0  0
 17 39  1  0  0  0  0
 20 40  1  0  0  0  0
M  END
> <id>
EN300-26664892

> <smiles>
CN1C(=O)N(C)C=2C=C(NC(=O)OC(C)(C)C)C(O)=CC12

> <IUPAC Name>
tert-butyl N-(6-hydroxy-1,3-dimethyl-2-oxo-2,3-dihydro-1H-1,3-benzodiazol-5-yl)carbamate

> <CAS>
2413867-57-7

> <URL>
https://www.enaminestore.com/catalog/EN300-26664892

> <ROCS_ShapeQuery>
_x0404_0B

> <ROCS_TanimotoCombo>
0.437 

> <ROCS_ShapeTanimoto>
0.323 

> <ROCS_ColorTanimoto>
0.113 

> <ROCS_RefTversky>
0.290 

> <ROCS_RefColorTversky>
0.119 

> <ROCS_RefTverskyCombo>
0.410 

> <ROCS_FitTversky>
1.542 

> <ROCS_FitColorTversky>
0.697 

> <ROCS_FitTverskyCombo>
2.239 

> <ROCS_ColorScore>
-8.613

> <ROCS_Overlap>
1937.769

> <ROCS_Rank>
285                 

$$$$
untitled-dbase-116875_57
  -OEChem-08222312023D

 45 47  0     0  0  0  0  0  0999 V2000
   -7.5446    2.8366  -14.7436 C   0  0  0  0  0  0  0  0  0  0  0  0
   -7.9690    5.5606  -18.0073 C   0  0  0  0  0  0  0  0  0  0  0  0
   -7.5829    4.2318  -18.2271 C   0  0  0  0  0  0  0  0  0  0  0  0
   -7.6818    3.7302  -15.8424 C   0  0  0  0  0  0  0  0  0  0  0  0
   -8.2118    5.9692  -16.6878 C   0  0  0  0  0  0  0  0  0  0  0  0
   -8.0642    5.0565  -15.6523 C   0  0  0  0  0  0  0  0  0  0  0  0
   -7.4426    3.3352  -17.1634 C   0  0  0  0  0  0  0  0  0  0  0  0
   -8.8706    4.9277   -8.9810 C   0  0  0  0  0  0  0  0  0  0  0  0
   -7.9805    6.4924  -12.1353 C   0  0  0  0  0  0  0  0  0  0  0  0
   -9.7498    4.7368  -12.6909 C   0  0  0  0  0  0  0  0  0  0  0  0
   -8.8151    6.5532  -10.8565 C   0  0  0  0  0  0  0  0  0  0  0  0
   -9.7120    4.2551  -11.2424 C   0  0  0  0  0  0  0  0  0  0  0  0
   -8.3993    5.3534  -13.0907 C   0  0  0  0  0  0  0  0  0  0  0  0
   -9.8517    4.1380   -6.4120 C   0  0  0  0  0  0  0  0  0  0  0  0
   -9.4306    1.7834   -7.1789 C   0  0  0  0  0  0  0  0  0  0  0  0
   -7.5140    3.3937   -6.9740 C   0  0  0  0  0  0  0  0  0  0  0  0
   -8.9974    3.2422   -7.3078 C   0  0  0  0  0  0  0  0  0  0  0  0
   -7.4326    2.1078  -13.8474 N   0  0  0  0  0  0  0  0  0  0  0  0
   -8.5946    7.1804  -16.1751 N   0  0  0  0  0  0  0  0  0  0  0  0
   -8.6915    7.0570  -14.8558 N   0  0  0  0  0  0  0  0  0  0  0  0
   -8.3751    5.7894  -14.5436 N   0  0  0  0  0  0  0  0  0  0  0  0
   -9.1018    5.2235  -10.3280 N   0  0  0  0  0  0  0  0  0  0  0  0
   -8.4251    5.7256   -8.1588 O   0  0  0  0  0  0  0  0  0  0  0  0
   -9.2005    3.6337   -8.6704 O   0  0  0  0  0  0  0  0  0  0  0  0
   -7.0698    2.0734  -17.4277 F   0  0  0  0  0  0  0  0  0  0  0  0
   -8.0743    6.2498  -18.8387 H   0  0  0  0  0  0  0  0  0  0  0  0
   -7.3897    3.8930  -19.2420 H   0  0  0  0  0  0  0  0  0  0  0  0
   -8.0487    7.4645  -12.6609 H   0  0  0  0  0  0  0  0  0  0  0  0
   -6.9127    6.3791  -11.8704 H   0  0  0  0  0  0  0  0  0  0  0  0
   -9.9889    3.8976  -13.3510 H   0  0  0  0  0  0  0  0  0  0  0  0
  -10.5514    5.4737  -12.8097 H   0  0  0  0  0  0  0  0  0  0  0  0
   -8.2677    7.1020  -10.0745 H   0  0  0  0  0  0  0  0  0  0  0  0
   -9.7368    7.1181  -11.0508 H   0  0  0  0  0  0  0  0  0  0  0  0
  -10.7330    4.0024  -10.9095 H   0  0  0  0  0  0  0  0  0  0  0  0
   -9.1228    3.3242  -11.1653 H   0  0  0  0  0  0  0  0  0  0  0  0
   -7.6129    4.5544  -13.0615 H   0  0  0  0  0  0  0  0  0  0  0  0
   -9.5439    5.1859   -6.5017 H   0  0  0  0  0  0  0  0  0  0  0  0
  -10.9146    4.0649   -6.6645 H   0  0  0  0  0  0  0  0  0  0  0  0
   -9.7274    3.8685   -5.3570 H   0  0  0  0  0  0  0  0  0  0  0  0
   -8.8203    1.1371   -7.8199 H   0  0  0  0  0  0  0  0  0  0  0  0
  -10.4680    1.6538   -7.5081 H   0  0  0  0  0  0  0  0  0  0  0  0
   -9.3472    1.4269   -6.1472 H   0  0  0  0  0  0  0  0  0  0  0  0
   -6.9010    2.7512   -7.6164 H   0  0  0  0  0  0  0  0  0  0  0  0
   -7.1766    4.4280   -7.0968 H   0  0  0  0  0  0  0  0  0  0  0  0
   -7.3129    3.0819   -5.9427 H   0  0  0  0  0  0  0  0  0  0  0  0
  1  4  1  0  0  0  0
  1 18  3  0  0  0  0
  2  3  1  0  0  0  0
  2  5  2  0  0  0  0
  3  7  2  0  0  0  0
  4  6  2  0  0  0  0
  4  7  1  0  0  0  0
  5  6  1  0  0  0  0
  5 19  1  0  0  0  0
  6 21  1  0  0  0  0
  7 25  1  0  0  0  0
  8 22  1  0  0  0  0
  8 23  2  0  0  0  0
  8 24  1  0  0  0  0
  9 11  1  0  0  0  0
  9 13  1  0  0  0  0
 10 12  1  0  0  0  0
 10 13  1  0  0  0  0
 11 22  1  0  0  0  0
 12 22  1  0  0  0  0
 13 21  1  0  0  0  0
 14 17  1  0  0  0  0
 15 17  1  0  0  0  0
 16 17  1  0  0  0  0
 17 24  1  0  0  0  0
 19 20  2  0  0  0  0
 20 21  1  0  0  0  0
  2 26  1  0  0  0  0
  3 27  1  0  0  0  0
  9 28  1  0  0  0  0
  9 29  1  0  0  0  0
 10 30  1  0  0  0  0
 10 31  1  0  0  0  0
 11 32  1  0  0  0  0
 11 33  1  0  0  0  0
 12 34  1  0  0  0  0
 12 35  1  0  0  0  0
 13 36  1  0  0  0  0
 14 37  1  0  0  0  0
 14 38  1  0  0  0  0
 14 39  1  0  0  0  0
 15 40  1  0  0  0  0
 15 41  1  0  0  0  0
 15 42  1  0  0  0  0
 16 43  1  0  0  0  0
 16 44  1  0  0  0  0
 16 45  1  0  0  0  0
M  END
> <id>
EN300-6750503

> <smiles>
CC(C)(C)OC(=O)N1CCC(CC1)N2N=NC=3C=CC(F)=C(C#N)C23

> <IUPAC Name>
tert-butyl 4-(7-cyano-6-fluoro-1H-1,2,3-benzotriazol-1-yl)piperidine-1-carboxylate

> <CAS>
2287271-20-7

> <URL>
https://www.enaminestore.com/catalog/EN300-6750503

> <ROCS_ShapeQuery>
_x0404_0B

> <ROCS_TanimotoCombo>
0.437 

> <ROCS_ShapeTanimoto>
0.340 

> <ROCS_ColorTanimoto>
0.097 

> <ROCS_RefTversky>
0.308 

> <ROCS_RefColorTversky>
0.103 

> <ROCS_RefTverskyCombo>
0.411 

> <ROCS_FitTversky>
1.437 

> <ROCS_FitColorTversky>
0.632 

> <ROCS_FitTverskyCombo>
2.069 

> <ROCS_ColorScore>
-7.409

> <ROCS_Overlap>
2058.529

> <ROCS_Rank>
286                 

$$$$
untitled-dbase-39097_626
  -OEChem-08222312023D

 49 51  0     1  0  0  0  0  0999 V2000
   -9.1195    3.8141   -9.7440 C   0  0  0  0  0  0  0  0  0  0  0  0
   -9.0923    5.4396   -7.9642 C   0  0  0  0  0  0  0  0  0  0  0  0
   -9.2046    4.1185   -8.3869 C   0  0  0  0  0  0  0  0  0  0  0  0
   -8.8087    6.1643  -10.2713 C   0  0  0  0  0  0  0  0  0  0  0  0
   -8.9310    4.8316  -10.6854 C   0  0  0  0  0  0  0  0  0  0  0  0
   -8.8925    6.4553   -8.8994 C   0  0  0  0  0  0  0  0  0  0  0  0
   -9.3939    3.0557   -7.4120 C   0  0  0  0  0  0  0  0  0  0  0  0
   -8.8969    5.4258  -16.6952 C   0  0  0  0  0  0  0  0  0  0  0  0
  -10.4469    5.6437  -13.3514 C   0  0  0  0  0  0  0  0  0  0  0  0
   -8.1724    6.6990  -12.6187 C   0  0  0  0  0  0  0  0  0  0  0  0
  -10.4164    6.1090  -14.7980 C   0  0  0  0  0  0  0  0  0  0  0  0
   -8.4227    4.8546  -14.3131 C   0  0  0  0  0  0  0  0  0  0  0  0
   -8.5754    7.2801  -11.2591 C   0  0  1  0  0  0  0  0  0  0  0  0
   -8.9629    5.4313  -12.9902 C   0  0  2  0  0  0  0  0  0  0  0  0
   -7.5899    6.5833  -18.9585 C   0  0  0  0  0  0  0  0  0  0  0  0
   -5.5692    5.2847  -18.2238 C   0  0  0  0  0  0  0  0  0  0  0  0
   -7.6617    4.0683  -18.8946 C   0  0  0  0  0  0  0  0  0  0  0  0
   -7.0956    5.3281  -18.2409 C   0  0  0  0  0  0  0  0  0  0  0  0
   -9.2348    5.4663  -15.3536 N   0  0  0  0  0  0  0  0  0  0  0  0
   -9.7485    8.1472  -11.3834 N   0  0  0  0  0  0  0  0  0  0  0  0
   -9.4823    3.2123   -6.1897 O   0  0  0  0  0  0  0  0  0  0  0  0
   -9.7134    5.4316  -17.6136 O   0  0  0  0  0  0  0  0  0  0  0  0
   -8.8418    4.4179  -11.9876 O   0  0  0  0  0  0  0  0  0  0  0  0
   -9.4688    1.8258   -7.9908 O   0  0  0  0  0  0  0  0  0  0  0  0
   -7.5412    5.3755  -16.8808 O   0  0  0  0  0  0  0  0  0  0  0  0
   -8.7708    7.7161   -8.4601 F   0  0  0  0  0  0  0  0  0  0  0  0
   -9.1873    2.7791  -10.0743 H   0  0  0  0  0  0  0  0  0  0  0  0
   -9.1553    5.6915   -6.9095 H   0  0  0  0  0  0  0  0  0  0  0  0
  -10.8944    6.4266  -12.7230 H   0  0  0  0  0  0  0  0  0  0  0  0
  -11.0418    4.7275  -13.2447 H   0  0  0  0  0  0  0  0  0  0  0  0
   -8.3463    7.4539  -13.4124 H   0  0  0  0  0  0  0  0  0  0  0  0
   -7.0846    6.4935  -12.6338 H   0  0  0  0  0  0  0  0  0  0  0  0
  -11.2845    5.7496  -15.3588 H   0  0  0  0  0  0  0  0  0  0  0  0
  -10.3520    7.1948  -14.9014 H   0  0  0  0  0  0  0  0  0  0  0  0
   -7.3826    5.1522  -14.4980 H   0  0  0  0  0  0  0  0  0  0  0  0
   -8.5005    3.7635  -14.3843 H   0  0  0  0  0  0  0  0  0  0  0  0
   -7.7478    7.8881  -10.8567 H   0  0  0  0  0  0  0  0  0  0  0  0
   -8.6851    6.6182  -18.9729 H   0  0  0  0  0  0  0  0  0  0  0  0
   -7.2193    7.4948  -18.4783 H   0  0  0  0  0  0  0  0  0  0  0  0
   -7.2666    6.5879  -20.0057 H   0  0  0  0  0  0  0  0  0  0  0  0
   -5.2102    4.3857  -17.7099 H   0  0  0  0  0  0  0  0  0  0  0  0
   -5.1606    6.1393  -17.6725 H   0  0  0  0  0  0  0  0  0  0  0  0
   -5.1533    5.2946  -19.2365 H   0  0  0  0  0  0  0  0  0  0  0  0
   -7.3073    3.1678  -18.3801 H   0  0  0  0  0  0  0  0  0  0  0  0
   -8.7564    4.0648  -18.8827 H   0  0  0  0  0  0  0  0  0  0  0  0
   -7.3244    3.9835  -19.9340 H   0  0  0  0  0  0  0  0  0  0  0  0
   -9.9676    8.4947  -10.4818 H   0  0  0  0  0  0  0  0  0  0  0  0
   -9.5168    8.8858  -12.0018 H   0  0  0  0  0  0  0  0  0  0  0  0
   -9.5974    1.1018   -7.3415 H   0  0  0  0  0  0  0  0  0  0  0  0
  1  3  1  0  0  0  0
  1  5  2  0  0  0  0
  2  3  2  0  0  0  0
  2  6  1  0  0  0  0
  3  7  1  0  0  0  0
  4  5  1  0  0  0  0
  4  6  2  0  0  0  0
  4 13  1  0  0  0  0
  5 23  1  0  0  0  0
  6 26  1  0  0  0  0
  7 21  2  0  0  0  0
  7 24  1  0  0  0  0
  8 19  1  0  0  0  0
  8 22  2  0  0  0  0
  8 25  1  0  0  0  0
  9 11  1  0  0  0  0
  9 14  1  0  0  0  0
 10 13  1  0  0  0  0
 10 14  1  0  0  0  0
 11 19  1  0  0  0  0
 12 14  1  0  0  0  0
 12 19  1  0  0  0  0
 13 20  1  0  0  0  0
 14 23  1  0  0  0  0
 15 18  1  0  0  0  0
 16 18  1  0  0  0  0
 17 18  1  0  0  0  0
 18 25  1  0  0  0  0
  1 27  1  0  0  0  0
  2 28  1  0  0  0  0
  9 29  1  0  0  0  0
  9 30  1  0  0  0  0
 10 31  1  0  0  0  0
 10 32  1  0  0  0  0
 11 33  1  0  0  0  0
 11 34  1  0  0  0  0
 12 35  1  0  0  0  0
 12 36  1  0  0  0  0
 13 37  1  0  0  0  0
 15 38  1  0  0  0  0
 15 39  1  0  0  0  0
 15 40  1  0  0  0  0
 16 41  1  0  0  0  0
 16 42  1  0  0  0  0
 16 43  1  0  0  0  0
 17 44  1  0  0  0  0
 17 45  1  0  0  0  0
 17 46  1  0  0  0  0
 20 47  1  0  0  0  0
 20 48  1  0  0  0  0
 24 49  1  0  0  0  0
M  END
> <id>
EN300-1129090

> <smiles>
CC(C)(C)OC(=O)N1CCC2(C1)CC(N)C=3C(F)=CC(=CC3O2)C(=O)O

> <IUPAC Name>
4-amino-1'-[(tert-butoxy)carbonyl]-5-fluoro-3,4-dihydrospiro[1-benzopyran-2,3'-pyrrolidine]-7-carboxylic acid

> <CAS>
2137602-21-0

> <URL>
https://www.enaminestore.com/catalog/EN300-1129090

> <ROCS_ShapeQuery>
_x0404_0B

> <ROCS_TanimotoCombo>
0.437 

> <ROCS_ShapeTanimoto>
0.394 

> <ROCS_ColorTanimoto>
0.043 

> <ROCS_RefTversky>
0.345 

> <ROCS_RefColorTversky>
0.049 

> <ROCS_RefTverskyCombo>
0.394 

> <ROCS_FitTversky>
1.561 

> <ROCS_FitColorTversky>
0.250 

> <ROCS_FitTverskyCombo>
1.812 

> <ROCS_ColorScore>
-3.568

> <ROCS_Overlap>
2304.979

> <ROCS_Rank>
287                 

$$$$
untitled-dbase-106938_2664
  -OEChem-08222312023D

 49 51  0     0  0  0  0  0  0999 V2000
   -9.2104    4.6841   -7.8020 C   0  0  0  0  0  0  0  0  0  0  0  0
   -9.4411    3.7566   -6.7921 C   0  0  0  0  0  0  0  0  0  0  0  0
   -9.0182    2.8818   -9.3419 C   0  0  0  0  0  0  0  0  0  0  0  0
   -8.9940    4.2465   -9.1039 C   0  0  0  0  0  0  0  0  0  0  0  0
   -9.4455    2.4138   -7.1336 C   0  0  0  0  0  0  0  0  0  0  0  0
   -9.1019    5.3547  -16.4887 C   0  0  0  0  0  0  0  0  0  0  0  0
   -7.8316    4.5917  -11.3138 C   0  0  0  0  0  0  0  0  0  0  0  0
  -10.0174    5.8010  -10.9068 C   0  0  0  0  0  0  0  0  0  0  0  0
   -7.5610    5.4964  -12.5202 C   0  0  0  0  0  0  0  0  0  0  0  0
   -9.7285    6.7270  -12.0918 C   0  0  0  0  0  0  0  0  0  0  0  0
   -8.6610    6.8182  -14.4292 C   0  0  0  0  0  0  0  0  0  0  0  0
   -9.6347    4.9522  -13.9955 C   0  0  0  0  0  0  0  0  0  0  0  0
   -8.7376    5.2424  -10.2389 C   0  0  0  0  0  0  0  0  0  0  0  0
   -8.8754    5.9968  -13.1309 C   0  0  0  0  0  0  0  0  0  0  0  0
   -7.8609    4.2533  -18.8121 C   0  0  0  0  0  0  0  0  0  0  0  0
   -6.0171    5.9044  -18.3837 C   0  0  0  0  0  0  0  0  0  0  0  0
   -6.5246    4.1272  -16.6830 C   0  0  0  0  0  0  0  0  0  0  0  0
   -7.1133    5.0533  -17.7463 C   0  0  0  0  0  0  0  0  0  0  0  0
   -9.2391    1.9508   -8.3869 N   0  0  0  0  0  0  0  0  0  0  0  0
   -9.1230    5.6534  -15.1547 N   0  0  0  0  0  0  0  0  0  0  0  0
   -9.9327    4.6468  -17.0511 O   0  0  0  0  0  0  0  0  0  0  0  0
   -8.0464    6.3448   -9.6324 O   0  0  0  0  0  0  0  0  0  0  0  0
   -8.0381    5.9444  -17.1133 O   0  0  0  0  0  0  0  0  0  0  0  0
   -9.7578    1.1299   -5.7695 Br  0  0  0  0  0  0  0  0  0  0  0  0
   -9.2013    5.7447   -7.5655 H   0  0  0  0  0  0  0  0  0  0  0  0
   -9.6104    4.0936   -5.7750 H   0  0  0  0  0  0  0  0  0  0  0  0
   -8.8569    2.4819  -10.3383 H   0  0  0  0  0  0  0  0  0  0  0  0
   -8.2942    3.6607  -11.6673 H   0  0  0  0  0  0  0  0  0  0  0  0
   -6.8666    4.3169  -10.8683 H   0  0  0  0  0  0  0  0  0  0  0  0
  -10.6031    6.3641  -10.1685 H   0  0  0  0  0  0  0  0  0  0  0  0
  -10.6493    4.9700  -11.2480 H   0  0  0  0  0  0  0  0  0  0  0  0
   -6.9452    6.3496  -12.2102 H   0  0  0  0  0  0  0  0  0  0  0  0
   -6.9714    4.9410  -13.2601 H   0  0  0  0  0  0  0  0  0  0  0  0
  -10.6790    7.0566  -12.5291 H   0  0  0  0  0  0  0  0  0  0  0  0
   -9.2137    7.6315  -11.7466 H   0  0  0  0  0  0  0  0  0  0  0  0
   -9.3188    7.6813  -14.5714 H   0  0  0  0  0  0  0  0  0  0  0  0
   -7.6293    7.0976  -14.6601 H   0  0  0  0  0  0  0  0  0  0  0  0
   -9.2876    3.9184  -13.9203 H   0  0  0  0  0  0  0  0  0  0  0  0
  -10.7272    4.9826  -13.9423 H   0  0  0  0  0  0  0  0  0  0  0  0
   -8.6486    3.6410  -18.3586 H   0  0  0  0  0  0  0  0  0  0  0  0
   -8.3174    4.9079  -19.5616 H   0  0  0  0  0  0  0  0  0  0  0  0
   -7.1858    3.5584  -19.3247 H   0  0  0  0  0  0  0  0  0  0  0  0
   -5.4780    6.4801  -17.6226 H   0  0  0  0  0  0  0  0  0  0  0  0
   -6.4453    6.6360  -19.0784 H   0  0  0  0  0  0  0  0  0  0  0  0
   -5.2943    5.2895  -18.9297 H   0  0  0  0  0  0  0  0  0  0  0  0
   -5.9883    4.7008  -15.9184 H   0  0  0  0  0  0  0  0  0  0  0  0
   -7.3017    3.5350  -16.1890 H   0  0  0  0  0  0  0  0  0  0  0  0
   -5.7927    3.4417  -17.1253 H   0  0  0  0  0  0  0  0  0  0  0  0
   -7.8749    6.9880  -10.3384 H   0  0  0  0  0  0  0  0  0  0  0  0
  1  2  1  0  0  0  0
  1  4  2  0  0  0  0
  2  5  2  0  0  0  0
  3  4  1  0  0  0  0
  3 19  2  0  0  0  0
  4 13  1  0  0  0  0
  5 19  1  0  0  0  0
  5 24  1  0  0  0  0
  6 20  1  0  0  0  0
  6 21  2  0  0  0  0
  6 23  1  0  0  0  0
  7  9  1  0  0  0  0
  7 13  1  0  0  0  0
  8 10  1  0  0  0  0
  8 13  1  0  0  0  0
  9 14  1  0  0  0  0
 10 14  1  0  0  0  0
 11 14  1  0  0  0  0
 11 20  1  0  0  0  0
 12 14  1  0  0  0  0
 12 20  1  0  0  0  0
 13 22  1  0  0  0  0
 15 18  1  0  0  0  0
 16 18  1  0  0  0  0
 17 18  1  0  0  0  0
 18 23  1  0  0  0  0
  1 25  1  0  0  0  0
  2 26  1  0  0  0  0
  3 27  1  0  0  0  0
  7 28  1  0  0  0  0
  7 29  1  0  0  0  0
  8 30  1  0  0  0  0
  8 31  1  0  0  0  0
  9 32  1  0  0  0  0
  9 33  1  0  0  0  0
 10 34  1  0  0  0  0
 10 35  1  0  0  0  0
 11 36  1  0  0  0  0
 11 37  1  0  0  0  0
 12 38  1  0  0  0  0
 12 39  1  0  0  0  0
 15 40  1  0  0  0  0
 15 41  1  0  0  0  0
 15 42  1  0  0  0  0
 16 43  1  0  0  0  0
 16 44  1  0  0  0  0
 16 45  1  0  0  0  0
 17 46  1  0  0  0  0
 17 47  1  0  0  0  0
 17 48  1  0  0  0  0
 22 49  1  0  0  0  0
M  END
> <id>
EN300-7428884

> <smiles>
CC(C)(C)OC(=O)N1CC2(C1)CCC(O)(CC2)C=3C=CC(Br)=NC3

> <IUPAC Name>
tert-butyl 7-(6-bromopyridin-3-yl)-7-hydroxy-2-azaspiro[3.5]nonane-2-carboxylate

> <CAS>
2309449-48-5

> <URL>
https://www.enaminestore.com/catalog/EN300-7428884

> <ROCS_ShapeQuery>
_x0404_0B

> <ROCS_TanimotoCombo>
0.437 

> <ROCS_ShapeTanimoto>
0.381 

> <ROCS_ColorTanimoto>
0.056 

> <ROCS_RefTversky>
0.332 

> <ROCS_RefColorTversky>
0.062 

> <ROCS_RefTverskyCombo>
0.394 

> <ROCS_FitTversky>
1.633 

> <ROCS_FitColorTversky>
0.363 

> <ROCS_FitTverskyCombo>
1.995 

> <ROCS_ColorScore>
-4.473

> <ROCS_Overlap>
2215.481

> <ROCS_Rank>
288                 

$$$$
untitled-dbase-106980_1221
  -OEChem-08222312023D

 44 46  0     0  0  0  0  0  0999 V2000
   -7.7122    4.5800  -18.0641 C   0  0  0  0  0  0  0  0  0  0  0  0
   -9.0542    4.2961  -17.9692 C   0  0  0  0  0  0  0  0  0  0  0  0
   -8.5448    5.2551  -16.1385 C   0  0  0  0  0  0  0  0  0  0  0  0
   -8.5943    5.2223   -9.2786 C   0  0  0  0  0  0  0  0  0  0  0  0
   -7.7386    5.2422  -13.5602 C   0  0  0  0  0  0  0  0  0  0  0  0
   -9.8785    5.4378  -13.7902 C   0  0  0  0  0  0  0  0  0  0  0  0
   -8.9299    6.4143  -11.5830 C   0  0  0  0  0  0  0  0  0  0  0  0
   -9.1248    4.2652  -11.5954 C   0  0  0  0  0  0  0  0  0  0  0  0
   -8.6503    5.8963  -14.6741 C   0  0  0  0  0  0  0  0  0  0  0  0
   -8.9240    5.3313  -12.6301 C   0  0  0  0  0  0  0  0  0  0  0  0
  -10.1607    4.1348   -7.4687 C   0  0  0  0  0  0  0  0  0  0  0  0
   -9.3867    1.9615   -8.4621 C   0  0  0  0  0  0  0  0  0  0  0  0
   -8.0562    3.0414   -6.6259 C   0  0  0  0  0  0  0  0  0  0  0  0
   -6.0984    5.6872  -16.5032 C   0  0  0  0  0  0  0  0  0  0  0  0
   -8.9464    3.2864   -7.8435 C   0  0  0  0  0  0  0  0  0  0  0  0
   -9.5666    4.7191  -16.7684 N   0  0  0  0  0  0  0  0  0  0  0  0
   -7.4004    5.1945  -16.8841 N   0  0  0  0  0  0  0  0  0  0  0  0
   -8.9253    5.3275  -10.6091 N   0  0  0  0  0  0  0  0  0  0  0  0
   -8.7113    6.1567   -8.4858 O   0  0  0  0  0  0  0  0  0  0  0  0
   -8.5038    7.3406  -14.7377 O   0  0  0  0  0  0  0  0  0  0  0  0
   -8.1826    3.9937   -8.8335 O   0  0  0  0  0  0  0  0  0  0  0  0
  -10.0906    3.4447  -19.2882 Br  0  0  0  0  0  0  0  0  0  0  0  0
   -6.9771    4.4076  -18.8384 H   0  0  0  0  0  0  0  0  0  0  0  0
   -7.4108    4.2196  -13.7815 H   0  0  0  0  0  0  0  0  0  0  0  0
   -6.8599    5.8290  -13.2765 H   0  0  0  0  0  0  0  0  0  0  0  0
  -10.6792    6.1781  -13.6900 H   0  0  0  0  0  0  0  0  0  0  0  0
  -10.3309    4.4860  -14.0965 H   0  0  0  0  0  0  0  0  0  0  0  0
   -8.0351    7.0400  -11.5193 H   0  0  0  0  0  0  0  0  0  0  0  0
   -9.8302    7.0320  -11.5207 H   0  0  0  0  0  0  0  0  0  0  0  0
  -10.1219    3.8217  -11.5382 H   0  0  0  0  0  0  0  0  0  0  0  0
   -8.3564    3.4904  -11.5371 H   0  0  0  0  0  0  0  0  0  0  0  0
   -9.8488    5.0867   -7.0243 H   0  0  0  0  0  0  0  0  0  0  0  0
  -10.7889    4.3470   -8.3400 H   0  0  0  0  0  0  0  0  0  0  0  0
  -10.7742    3.6280   -6.7150 H   0  0  0  0  0  0  0  0  0  0  0  0
   -8.5186    1.3495   -8.7326 H   0  0  0  0  0  0  0  0  0  0  0  0
   -9.9461    2.1305   -9.3894 H   0  0  0  0  0  0  0  0  0  0  0  0
  -10.0171    1.3854   -7.7770 H   0  0  0  0  0  0  0  0  0  0  0  0
   -7.1851    2.4329   -6.8945 H   0  0  0  0  0  0  0  0  0  0  0  0
   -7.7006    3.9809   -6.1907 H   0  0  0  0  0  0  0  0  0  0  0  0
   -8.5974    2.4828   -5.8537 H   0  0  0  0  0  0  0  0  0  0  0  0
   -6.0204    6.7258  -16.8353 H   0  0  0  0  0  0  0  0  0  0  0  0
   -5.9887    5.6239  -15.4170 H   0  0  0  0  0  0  0  0  0  0  0  0
   -5.3271    5.0740  -16.9774 H   0  0  0  0  0  0  0  0  0  0  0  0
   -9.2239    7.6477  -15.3012 H   0  0  0  0  0  0  0  0  0  0  0  0
  1  2  2  0  0  0  0
  1 17  1  0  0  0  0
  2 16  1  0  0  0  0
  2 22  1  0  0  0  0
  3  9  1  0  0  0  0
  3 16  2  0  0  0  0
  3 17  1  0  0  0  0
  4 18  1  0  0  0  0
  4 19  2  0  0  0  0
  4 21  1  0  0  0  0
  5  9  1  0  0  0  0
  5 10  1  0  0  0  0
  6  9  1  0  0  0  0
  6 10  1  0  0  0  0
  7 10  1  0  0  0  0
  7 18  1  0  0  0  0
  8 10  1  0  0  0  0
  8 18  1  0  0  0  0
  9 20  1  0  0  0  0
 11 15  1  0  0  0  0
 12 15  1  0  0  0  0
 13 15  1  0  0  0  0
 14 17  1  0  0  0  0
 15 21  1  0  0  0  0
  1 23  1  0  0  0  0
  5 24  1  0  0  0  0
  5 25  1  0  0  0  0
  6 26  1  0  0  0  0
  6 27  1  0  0  0  0
  7 28  1  0  0  0  0
  7 29  1  0  0  0  0
  8 30  1  0  0  0  0
  8 31  1  0  0  0  0
 11 32  1  0  0  0  0
 11 33  1  0  0  0  0
 11 34  1  0  0  0  0
 12 35  1  0  0  0  0
 12 36  1  0  0  0  0
 12 37  1  0  0  0  0
 13 38  1  0  0  0  0
 13 39  1  0  0  0  0
 13 40  1  0  0  0  0
 14 41  1  0  0  0  0
 14 42  1  0  0  0  0
 14 43  1  0  0  0  0
 20 44  1  0  0  0  0
M  END
> <id>
EN300-7428219

> <smiles>
CN1C=C(Br)N=C1C2(O)CC3(CN(C3)C(=O)OC(C)(C)C)C2

> <IUPAC Name>
tert-butyl 6-(4-bromo-1-methyl-1H-imidazol-2-yl)-6-hydroxy-2-azaspiro[3.3]heptane-2-carboxylate

> <CAS>
2309461-39-8

> <URL>
https://www.enaminestore.com/catalog/EN300-7428219

> <ROCS_ShapeQuery>
_x0404_0B

> <ROCS_TanimotoCombo>
0.436 

> <ROCS_ShapeTanimoto>
0.376 

> <ROCS_ColorTanimoto>
0.060 

> <ROCS_RefTversky>
0.326 

> <ROCS_RefColorTversky>
0.067 

> <ROCS_RefTverskyCombo>
0.393 

> <ROCS_FitTversky>
1.696 

> <ROCS_FitColorTversky>
0.366 

> <ROCS_FitTverskyCombo>
2.063 

> <ROCS_ColorScore>
-4.873

> <ROCS_Overlap>
2174.640

> <ROCS_Rank>
289                 

$$$$
untitled-dbase-111983_3
  -OEChem-08222312023D

 30 33  0     0  0  0  0  0  0999 V2000
   -8.6949    4.7443  -18.3369 C   0  0  0  0  0  0  0  0  0  0  0  0
   -7.9397    5.9102  -18.1872 C   0  0  0  0  0  0  0  0  0  0  0  0
   -9.2161    4.0724  -17.2227 C   0  0  0  0  0  0  0  0  0  0  0  0
   -7.6775    6.4471  -16.9232 C   0  0  0  0  0  0  0  0  0  0  0  0
   -9.3008    4.2291  -14.6117 C   0  0  0  0  0  0  0  0  0  0  0  0
   -8.8625    6.6838   -9.1765 C   0  0  0  0  0  0  0  0  0  0  0  0
   -9.0377    4.6113   -7.9106 C   0  0  0  0  0  0  0  0  0  0  0  0
   -8.9650    4.5948  -15.9419 C   0  0  0  0  0  0  0  0  0  0  0  0
   -8.8505    5.9307  -10.3627 C   0  0  0  0  0  0  0  0  0  0  0  0
   -8.9325    4.5432  -10.2864 C   0  0  0  0  0  0  0  0  0  0  0  0
   -9.0273    3.8461   -9.0815 C   0  0  0  0  0  0  0  0  0  0  0  0
   -8.2088    5.7575  -15.8349 C   0  0  0  0  0  0  0  0  0  0  0  0
   -8.9569    6.0051   -7.9550 C   0  0  0  0  0  0  0  0  0  0  0  0
   -8.7353    5.1797  -13.7937 C   0  0  0  0  0  0  0  0  0  0  0  0
   -8.7971    5.2390  -12.3821 C   0  0  0  0  0  0  0  0  0  0  0  0
   -8.7673    6.3446  -11.6724 N   0  0  0  0  0  0  0  0  0  0  0  0
   -8.8962    4.1273  -11.5926 N   0  0  0  0  0  0  0  0  0  0  0  0
   -9.1078    2.4449   -9.0225 N   0  0  0  0  0  0  0  0  0  0  0  0
   -8.0705    6.1111  -14.5260 O   0  0  0  0  0  0  0  0  0  0  0  0
   -8.9763    6.9952   -6.3417 Br  0  0  0  0  0  0  0  0  0  0  0  0
   -8.8832    4.3518  -19.3332 H   0  0  0  0  0  0  0  0  0  0  0  0
   -7.5490    6.4102  -19.0698 H   0  0  0  0  0  0  0  0  0  0  0  0
   -9.8018    3.1677  -17.3549 H   0  0  0  0  0  0  0  0  0  0  0  0
   -7.0937    7.3513  -16.7988 H   0  0  0  0  0  0  0  0  0  0  0  0
   -9.8838    3.3739  -14.2973 H   0  0  0  0  0  0  0  0  0  0  0  0
   -8.7987    7.7669   -9.2186 H   0  0  0  0  0  0  0  0  0  0  0  0
   -9.1104    4.1041   -6.9496 H   0  0  0  0  0  0  0  0  0  0  0  0
   -8.9348    3.1675  -11.9102 H   0  0  0  0  0  0  0  0  0  0  0  0
   -9.1258    1.9887   -8.1297 H   0  0  0  0  0  0  0  0  0  0  0  0
   -9.0514    1.9114   -9.8697 H   0  0  0  0  0  0  0  0  0  0  0  0
  1  2  2  0  0  0  0
  1  3  1  0  0  0  0
  2  4  1  0  0  0  0
  3  8  2  0  0  0  0
  4 12  2  0  0  0  0
  5  8  1  0  0  0  0
  5 14  2  0  0  0  0
  6  9  1  0  0  0  0
  6 13  2  0  0  0  0
  7 11  2  0  0  0  0
  7 13  1  0  0  0  0
  8 12  1  0  0  0  0
  9 10  2  0  0  0  0
  9 16  1  0  0  0  0
 10 11  1  0  0  0  0
 10 17  1  0  0  0  0
 11 18  1  0  0  0  0
 12 19  1  0  0  0  0
 13 20  1  0  0  0  0
 14 15  1  0  0  0  0
 14 19  1  0  0  0  0
 15 16  2  0  0  0  0
 15 17  1  0  0  0  0
  1 21  1  0  0  0  0
  2 22  1  0  0  0  0
  3 23  1  0  0  0  0
  4 24  1  0  0  0  0
  5 25  1  0  0  0  0
  6 26  1  0  0  0  0
  7 27  1  0  0  0  0
 17 28  1  0  0  0  0
 18 29  1  0  0  0  0
 18 30  1  0  0  0  0
M  END
> <id>
EN300-319120

> <smiles>
NC=1C=C(Br)C=C2N=C(NC12)C3=CC=4C=CC=CC4O3

> <MDLNUMBER>
MFCD30476990

> <IUPAC Name>
2-(1-benzofuran-2-yl)-5-bromo-1H-1,3-benzodiazol-7-amine

> <CAS>
1911619-39-0

> <URL>
https://www.enaminestore.com/catalog/EN300-319120

> <ROCS_ShapeQuery>
_x0404_0B

> <ROCS_TanimotoCombo>
0.436 

> <ROCS_ShapeTanimoto>
0.345 

> <ROCS_ColorTanimoto>
0.091 

> <ROCS_RefTversky>
0.304 

> <ROCS_RefColorTversky>
0.100 

> <ROCS_RefTverskyCombo>
0.405 

> <ROCS_FitTversky>
1.627 

> <ROCS_FitColorTversky>
0.509 

> <ROCS_FitTverskyCombo>
2.135 

> <ROCS_ColorScore>
-7.261

> <ROCS_Overlap>
2031.762

> <ROCS_Rank>
290                 

$$$$
untitled-dbase-103664_462
  -OEChem-08222312023D

 54 56  0     0  0  0  0  0  0999 V2000
   -8.6690    4.2258   -9.3353 B   0  0  0  0  0  0  0  0  0  0  0  0
   -8.8780    6.3434  -14.2272 C   0  0  0  0  0  0  0  0  0  0  0  0
   -7.3400    4.6814  -11.6354 C   0  0  0  0  0  0  0  0  0  0  0  0
   -8.8519    6.5123  -10.7467 C   0  0  0  0  0  0  0  0  0  0  0  0
   -8.3616    4.4288  -12.7449 C   0  0  0  0  0  0  0  0  0  0  0  0
   -9.8301    6.2315  -11.8955 C   0  0  0  0  0  0  0  0  0  0  0  0
   -7.5080    6.1769  -16.3333 C   0  0  0  0  0  0  0  0  0  0  0  0
   -9.1394    4.3680  -15.6951 C   0  0  0  0  0  0  0  0  0  0  0  0
   -7.0327    5.1892  -17.3849 C   0  0  0  0  0  0  0  0  0  0  0  0
   -9.7082    4.4433  -17.1008 C   0  0  0  0  0  0  0  0  0  0  0  0
   -7.9939    5.2845  -10.3738 C   0  0  0  0  0  0  0  0  0  0  0  0
   -9.4962    3.3477   -7.3907 C   0  0  0  0  0  0  0  0  0  0  0  0
   -9.6136    2.2967   -8.5454 C   0  0  0  0  0  0  0  0  0  0  0  0
  -10.8261    4.0266   -6.9925 C   0  0  0  0  0  0  0  0  0  0  0  0
   -8.8347    2.8206   -6.1093 C   0  0  0  0  0  0  0  0  0  0  0  0
  -11.0055    1.6677   -8.7002 C   0  0  0  0  0  0  0  0  0  0  0  0
   -8.5793    1.1499   -8.4878 C   0  0  0  0  0  0  0  0  0  0  0  0
   -9.1316    5.6360  -13.0420 N   0  0  0  0  0  0  0  0  0  0  0  0
   -8.4091    5.5877  -15.3219 N   0  0  0  0  0  0  0  0  0  0  0  0
   -9.0467    7.5666  -14.2986 O   0  0  0  0  0  0  0  0  0  0  0  0
   -8.0552    3.1680  -18.6943 O   0  0  0  0  0  0  0  0  0  0  0  0
   -8.7856    5.5045  -19.3126 O   0  0  0  0  0  0  0  0  0  0  0  0
   -8.6340    4.3897   -7.9523 O   0  0  0  0  0  0  0  0  0  0  0  0
   -9.3273    3.0717   -9.7545 O   0  0  0  0  0  0  0  0  0  0  0  0
   -8.4022    4.5240  -18.3155 S   0  0  0  0  0  0  0  0  0  0  0  0
   -6.8496    3.7332  -11.3819 H   0  0  0  0  0  0  0  0  0  0  0  0
   -6.5584    5.3475  -12.0183 H   0  0  0  0  0  0  0  0  0  0  0  0
   -8.2072    7.3598  -11.0352 H   0  0  0  0  0  0  0  0  0  0  0  0
   -9.4243    6.8559   -9.8674 H   0  0  0  0  0  0  0  0  0  0  0  0
   -7.8555    4.1178  -13.6691 H   0  0  0  0  0  0  0  0  0  0  0  0
   -9.0120    3.6097  -12.4179 H   0  0  0  0  0  0  0  0  0  0  0  0
  -10.6311    5.5732  -11.5538 H   0  0  0  0  0  0  0  0  0  0  0  0
  -10.2868    7.1628  -12.2406 H   0  0  0  0  0  0  0  0  0  0  0  0
   -6.6374    6.6236  -15.8240 H   0  0  0  0  0  0  0  0  0  0  0  0
   -8.0562    7.0140  -16.7991 H   0  0  0  0  0  0  0  0  0  0  0  0
   -9.9378    4.2208  -14.9518 H   0  0  0  0  0  0  0  0  0  0  0  0
   -8.4842    3.4893  -15.6592 H   0  0  0  0  0  0  0  0  0  0  0  0
   -6.3615    5.6736  -18.1014 H   0  0  0  0  0  0  0  0  0  0  0  0
   -6.5022    4.3465  -16.9283 H   0  0  0  0  0  0  0  0  0  0  0  0
  -10.3096    3.5634  -17.3307 H   0  0  0  0  0  0  0  0  0  0  0  0
  -10.3194    5.3358  -17.2300 H   0  0  0  0  0  0  0  0  0  0  0  0
   -7.1472    5.6906   -9.7779 H   0  0  0  0  0  0  0  0  0  0  0  0
  -10.6351    4.7301   -6.1918 H   0  0  0  0  0  0  0  0  0  0  0  0
  -11.5222    3.2669   -6.6600 H   0  0  0  0  0  0  0  0  0  0  0  0
  -11.2271    4.5455   -7.8541 H   0  0  0  0  0  0  0  0  0  0  0  0
   -8.7973    3.6147   -5.3694 H   0  0  0  0  0  0  0  0  0  0  0  0
   -7.8261    2.4868   -6.3347 H   0  0  0  0  0  0  0  0  0  0  0  0
   -9.4141    1.9886   -5.7199 H   0  0  0  0  0  0  0  0  0  0  0  0
  -10.9909    0.9559   -9.5204 H   0  0  0  0  0  0  0  0  0  0  0  0
  -11.7327    2.4469   -8.9088 H   0  0  0  0  0  0  0  0  0  0  0  0
  -11.2749    1.1564   -7.7806 H   0  0  0  0  0  0  0  0  0  0  0  0
   -8.7468    0.4839   -9.3249 H   0  0  0  0  0  0  0  0  0  0  0  0
   -8.7029    0.6124   -7.5560 H   0  0  0  0  0  0  0  0  0  0  0  0
   -7.5838    1.5721   -8.5432 H   0  0  0  0  0  0  0  0  0  0  0  0
  1 11  1  0  0  0  0
  1 23  1  0  0  0  0
  1 24  1  0  0  0  0
  2 18  1  0  0  0  0
  2 19  1  0  0  0  0
  2 20  2  0  0  0  0
  3  5  1  0  0  0  0
  3 11  1  0  0  0  0
  4  6  1  0  0  0  0
  4 11  1  0  0  0  0
  5 18  1  0  0  0  0
  6 18  1  0  0  0  0
  7  9  1  0  0  0  0
  7 19  1  0  0  0  0
  8 10  1  0  0  0  0
  8 19  1  0  0  0  0
  9 25  1  0  0  0  0
 10 25  1  0  0  0  0
 12 13  1  0  0  0  0
 12 14  1  0  0  0  0
 12 15  1  0  0  0  0
 12 23  1  0  0  0  0
 13 16  1  0  0  0  0
 13 17  1  0  0  0  0
 13 24  1  0  0  0  0
 21 25  2  0  0  0  0
 22 25  2  0  0  0  0
  3 26  1  0  0  0  0
  3 27  1  0  0  0  0
  4 28  1  0  0  0  0
  4 29  1  0  0  0  0
  5 30  1  0  0  0  0
  5 31  1  0  0  0  0
  6 32  1  0  0  0  0
  6 33  1  0  0  0  0
  7 34  1  0  0  0  0
  7 35  1  0  0  0  0
  8 36  1  0  0  0  0
  8 37  1  0  0  0  0
  9 38  1  0  0  0  0
  9 39  1  0  0  0  0
 10 40  1  0  0  0  0
 10 41  1  0  0  0  0
 11 42  1  0  0  0  0
 14 43  1  0  0  0  0
 14 44  1  0  0  0  0
 14 45  1  0  0  0  0
 15 46  1  0  0  0  0
 15 47  1  0  0  0  0
 15 48  1  0  0  0  0
 16 49  1  0  0  0  0
 16 50  1  0  0  0  0
 16 51  1  0  0  0  0
 17 52  1  0  0  0  0
 17 53  1  0  0  0  0
 17 54  1  0  0  0  0
M  END
> <id>
EN300-6734833

> <smiles>
CC1(C)OB(OC1(C)C)C2CCN(CC2)C(=O)N3CCS(=O)(=O)CC3

> <IUPAC Name>
4-[4-(tetramethyl-1,3,2-dioxaborolan-2-yl)piperidine-1-carbonyl]-1lambda6-thiomorpholine-1,1-dione

> <URL>
https://www.enaminestore.com/catalog/EN300-6734833

> <ROCS_ShapeQuery>
_x0404_0B

> <ROCS_TanimotoCombo>
0.436 

> <ROCS_ShapeTanimoto>
0.374 

> <ROCS_ColorTanimoto>
0.062 

> <ROCS_RefTversky>
0.328 

> <ROCS_RefColorTversky>
0.068 

> <ROCS_RefTverskyCombo>
0.396 

> <ROCS_FitTversky>
1.601 

> <ROCS_FitColorTversky>
0.430 

> <ROCS_FitTverskyCombo>
2.031 

> <ROCS_ColorScore>
-4.902

> <ROCS_Overlap>
2191.187

> <ROCS_Rank>
291                 

$$$$
untitled-dbase-39263_1992
  -OEChem-08222312023D

 61 63  0     1  0  0  0  0  0999 V2000
   -9.1321    5.3495   -7.9984 C   0  0  0  0  0  0  0  0  0  0  0  0
   -8.9320    6.3993   -8.8952 C   0  0  0  0  0  0  0  0  0  0  0  0
   -9.1060    3.7854   -9.8323 C   0  0  0  0  0  0  0  0  0  0  0  0
   -9.2178    4.0421   -8.4673 C   0  0  0  0  0  0  0  0  0  0  0  0
   -8.8214    6.1564  -10.2746 C   0  0  0  0  0  0  0  0  0  0  0  0
   -8.9172    4.8369  -10.7355 C   0  0  0  0  0  0  0  0  0  0  0  0
   -9.4083    2.9440   -7.5330 C   0  0  0  0  0  0  0  0  0  0  0  0
   -8.7932    5.6358  -16.7204 C   0  0  0  0  0  0  0  0  0  0  0  0
  -10.4009    5.7177  -13.3978 C   0  0  0  0  0  0  0  0  0  0  0  0
   -8.1547    6.7797  -12.5915 C   0  0  0  0  0  0  0  0  0  0  0  0
  -10.3536    6.2323  -14.8271 C   0  0  0  0  0  0  0  0  0  0  0  0
   -8.3498    4.9907  -14.3512 C   0  0  0  0  0  0  0  0  0  0  0  0
   -8.5885    7.3083  -11.2201 C   0  0  1  0  0  0  0  0  0  0  0  0
   -8.9201    5.5142  -13.0189 C   0  0  2  0  0  0  0  0  0  0  0  0
   -9.7089    1.2038   -5.2669 C   0  0  0  0  0  0  0  0  0  0  0  0
  -10.1997    3.2963   -3.9670 C   0  0  0  0  0  0  0  0  0  0  0  0
  -11.7168    2.6064   -5.8461 C   0  0  0  0  0  0  0  0  0  0  0  0
   -6.4733    6.9188  -17.7892 C   0  0  0  0  0  0  0  0  0  0  0  0
   -5.5586    4.5997  -18.0965 C   0  0  0  0  0  0  0  0  0  0  0  0
   -7.6387    5.2959  -19.3199 C   0  0  0  0  0  0  0  0  0  0  0  0
  -10.2771    2.6206   -5.3344 C   0  0  0  0  0  0  0  0  0  0  0  0
   -6.8242    5.4523  -18.0366 C   0  0  0  0  0  0  0  0  0  0  0  0
   -9.1536    5.6258  -15.3840 N   0  0  0  0  0  0  0  0  0  0  0  0
   -9.7721    8.1624  -11.3347 N   0  0  0  0  0  0  0  0  0  0  0  0
   -9.4953    1.7528   -7.8602 O   0  0  0  0  0  0  0  0  0  0  0  0
   -9.4542    6.1666  -17.6101 O   0  0  0  0  0  0  0  0  0  0  0  0
   -8.8005    4.4691  -12.0492 O   0  0  0  0  0  0  0  0  0  0  0  0
   -9.4787    3.3889   -6.2409 O   0  0  0  0  0  0  0  0  0  0  0  0
   -7.6107    4.9802  -16.9369 O   0  0  0  0  0  0  0  0  0  0  0  0
   -9.2191    5.5643   -6.9371 H   0  0  0  0  0  0  0  0  0  0  0  0
   -8.8658    7.4118   -8.5059 H   0  0  0  0  0  0  0  0  0  0  0  0
   -9.1525    2.7613  -10.1985 H   0  0  0  0  0  0  0  0  0  0  0  0
  -10.8703    6.4726  -12.7509 H   0  0  0  0  0  0  0  0  0  0  0  0
  -10.9844    4.7904  -13.3313 H   0  0  0  0  0  0  0  0  0  0  0  0
   -8.3258    7.5591  -13.3616 H   0  0  0  0  0  0  0  0  0  0  0  0
   -7.0638    6.5904  -12.5942 H   0  0  0  0  0  0  0  0  0  0  0  0
  -11.2070    5.8806  -15.4146 H   0  0  0  0  0  0  0  0  0  0  0  0
  -10.3038    7.3217  -14.8924 H   0  0  0  0  0  0  0  0  0  0  0  0
   -7.3115    5.3093  -14.5083 H   0  0  0  0  0  0  0  0  0  0  0  0
   -8.4102    3.9015  -14.4604 H   0  0  0  0  0  0  0  0  0  0  0  0
   -7.7774    7.9141  -10.7863 H   0  0  0  0  0  0  0  0  0  0  0  0
   -9.7626    0.7153   -6.2465 H   0  0  0  0  0  0  0  0  0  0  0  0
   -8.6656    1.2030   -4.9347 H   0  0  0  0  0  0  0  0  0  0  0  0
  -10.2917    0.5811   -4.5786 H   0  0  0  0  0  0  0  0  0  0  0  0
  -10.6064    4.3131   -4.0108 H   0  0  0  0  0  0  0  0  0  0  0  0
   -9.1588    3.3941   -3.6383 H   0  0  0  0  0  0  0  0  0  0  0  0
  -10.7521    2.7344   -3.2069 H   0  0  0  0  0  0  0  0  0  0  0  0
  -12.1246    3.6226   -5.8946 H   0  0  0  0  0  0  0  0  0  0  0  0
  -11.7863    2.1582   -6.8426 H   0  0  0  0  0  0  0  0  0  0  0  0
  -12.3667    2.0446   -5.1655 H   0  0  0  0  0  0  0  0  0  0  0  0
   -7.3791    7.5341  -17.7455 H   0  0  0  0  0  0  0  0  0  0  0  0
   -5.9192    7.0487  -16.8539 H   0  0  0  0  0  0  0  0  0  0  0  0
   -5.8667    7.3194  -18.6094 H   0  0  0  0  0  0  0  0  0  0  0  0
   -5.8057    3.5467  -18.2738 H   0  0  0  0  0  0  0  0  0  0  0  0
   -5.0194    4.6338  -17.1429 H   0  0  0  0  0  0  0  0  0  0  0  0
   -4.8824    4.9354  -18.8894 H   0  0  0  0  0  0  0  0  0  0  0  0
   -7.8905    4.2441  -19.4975 H   0  0  0  0  0  0  0  0  0  0  0  0
   -8.5689    5.8720  -19.2799 H   0  0  0  0  0  0  0  0  0  0  0  0
   -7.0613    5.6270  -20.1907 H   0  0  0  0  0  0  0  0  0  0  0  0
  -10.0101    8.4778  -10.4261 H   0  0  0  0  0  0  0  0  0  0  0  0
   -9.5423    8.9238  -11.9256 H   0  0  0  0  0  0  0  0  0  0  0  0
  1  2  1  0  0  0  0
  1  4  2  0  0  0  0
  2  5  2  0  0  0  0
  3  4  1  0  0  0  0
  3  6  2  0  0  0  0
  4  7  1  0  0  0  0
  5  6  1  0  0  0  0
  5 13  1  0  0  0  0
  6 27  1  0  0  0  0
  7 25  2  0  0  0  0
  7 28  1  0  0  0  0
  8 23  1  0  0  0  0
  8 26  2  0  0  0  0
  8 29  1  0  0  0  0
  9 11  1  0  0  0  0
  9 14  1  0  0  0  0
 10 13  1  0  0  0  0
 10 14  1  0  0  0  0
 11 23  1  0  0  0  0
 12 14  1  0  0  0  0
 12 23  1  0  0  0  0
 13 24  1  0  0  0  0
 14 27  1  0  0  0  0
 15 21  1  0  0  0  0
 16 21  1  0  0  0  0
 17 21  1  0  0  0  0
 18 22  1  0  0  0  0
 19 22  1  0  0  0  0
 20 22  1  0  0  0  0
 21 28  1  0  0  0  0
 22 29  1  0  0  0  0
  1 30  1  0  0  0  0
  2 31  1  0  0  0  0
  3 32  1  0  0  0  0
  9 33  1  0  0  0  0
  9 34  1  0  0  0  0
 10 35  1  0  0  0  0
 10 36  1  0  0  0  0
 11 37  1  0  0  0  0
 11 38  1  0  0  0  0
 12 39  1  0  0  0  0
 12 40  1  0  0  0  0
 13 41  1  0  0  0  0
 15 42  1  0  0  0  0
 15 43  1  0  0  0  0
 15 44  1  0  0  0  0
 16 45  1  0  0  0  0
 16 46  1  0  0  0  0
 16 47  1  0  0  0  0
 17 48  1  0  0  0  0
 17 49  1  0  0  0  0
 17 50  1  0  0  0  0
 18 51  1  0  0  0  0
 18 52  1  0  0  0  0
 18 53  1  0  0  0  0
 19 54  1  0  0  0  0
 19 55  1  0  0  0  0
 19 56  1  0  0  0  0
 20 57  1  0  0  0  0
 20 58  1  0  0  0  0
 20 59  1  0  0  0  0
 24 60  1  0  0  0  0
 24 61  1  0  0  0  0
M  END
> <id>
EN300-1129057

> <smiles>
CC(C)(C)OC(=O)N1CCC2(C1)CC(N)C=3C=CC(=CC3O2)C(=O)OC(C)(C)C

> <IUPAC Name>
1',7-di-tert-butyl 4-amino-3,4-dihydrospiro[1-benzopyran-2,3'-pyrrolidine]-1',7-dicarboxylate

> <CAS>
2138000-19-6

> <URL>
https://www.enaminestore.com/catalog/EN300-1129057

> <ROCS_ShapeQuery>
_x0404_0B

> <ROCS_TanimotoCombo>
0.436 

> <ROCS_ShapeTanimoto>
0.395 

> <ROCS_ColorTanimoto>
0.041 

> <ROCS_RefTversky>
0.351 

> <ROCS_RefColorTversky>
0.047 

> <ROCS_RefTverskyCombo>
0.398 

> <ROCS_FitTversky>
1.472 

> <ROCS_FitColorTversky>
0.255 

> <ROCS_FitTverskyCombo>
1.727 

> <ROCS_ColorScore>
-3.391

> <ROCS_Overlap>
2346.637

> <ROCS_Rank>
292                 

$$$$
untitled-dbase-92288_1073
  -OEChem-08222312023D

 56 58  0     0  0  0  0  0  0999 V2000
   -9.1527    1.8747   -8.5013 C   0  0  0  0  0  0  0  0  0  0  0  0
   -9.0568    2.8550   -9.4889 C   0  0  0  0  0  0  0  0  0  0  0  0
   -9.1535    2.2388   -7.1548 C   0  0  0  0  0  0  0  0  0  0  0  0
   -8.9624    4.5637   -7.7834 C   0  0  0  0  0  0  0  0  0  0  0  0
   -8.9617    4.1996   -9.1299 C   0  0  0  0  0  0  0  0  0  0  0  0
   -9.0584    3.5833   -6.7958 C   0  0  0  0  0  0  0  0  0  0  0  0
   -7.4849    5.3114  -17.2611 C   0  0  0  0  0  0  0  0  0  0  0  0
  -10.0941    5.2425  -11.1366 C   0  0  0  0  0  0  0  0  0  0  0  0
   -7.5470    5.1132  -11.0165 C   0  0  0  0  0  0  0  0  0  0  0  0
   -9.9715    6.1738  -12.3473 C   0  0  0  0  0  0  0  0  0  0  0  0
   -7.4603    6.0390  -12.2360 C   0  0  0  0  0  0  0  0  0  0  0  0
   -8.6052    7.0447  -14.2674 C   0  0  0  0  0  0  0  0  0  0  0  0
   -8.7582    4.5673  -13.8967 C   0  0  0  0  0  0  0  0  0  0  0  0
   -7.4931    6.8094  -15.2869 C   0  0  0  0  0  0  0  0  0  0  0  0
   -7.6496    4.3582  -14.9283 C   0  0  0  0  0  0  0  0  0  0  0  0
   -8.8562    5.2763  -10.2155 C   0  0  0  0  0  0  0  0  0  0  0  0
   -8.6861    5.9417  -13.1800 C   0  0  0  0  0  0  0  0  0  0  0  0
   -8.6002    5.1647  -19.8930 C   0  0  0  0  0  0  0  0  0  0  0  0
   -9.8752    3.1752  -19.0411 C   0  0  0  0  0  0  0  0  0  0  0  0
  -10.2505    5.4354  -18.0121 C   0  0  0  0  0  0  0  0  0  0  0  0
   -9.2281    4.5065  -18.6653 C   0  0  0  0  0  0  0  0  0  0  0  0
   -7.5792    5.4745  -15.8743 N   0  0  0  0  0  0  0  0  0  0  0  0
   -6.8401    6.0501  -18.0035 O   0  0  0  0  0  0  0  0  0  0  0  0
   -8.8209    6.5662   -9.5851 O   0  0  0  0  0  0  0  0  0  0  0  0
   -8.1917    4.2298  -17.7163 O   0  0  0  0  0  0  0  0  0  0  0  0
   -9.0594    4.0759   -4.9712 Br  0  0  0  0  0  0  0  0  0  0  0  0
   -9.2268    0.8278   -8.7809 H   0  0  0  0  0  0  0  0  0  0  0  0
   -9.0570    2.5619  -10.5354 H   0  0  0  0  0  0  0  0  0  0  0  0
   -9.2289    1.4624   -6.3978 H   0  0  0  0  0  0  0  0  0  0  0  0
   -8.8879    5.6141   -7.5111 H   0  0  0  0  0  0  0  0  0  0  0  0
  -10.9858    5.5374  -10.5686 H   0  0  0  0  0  0  0  0  0  0  0  0
  -10.2751    4.2198  -11.4882 H   0  0  0  0  0  0  0  0  0  0  0  0
   -7.4354    4.0727  -11.3494 H   0  0  0  0  0  0  0  0  0  0  0  0
   -6.6858    5.3239  -10.3673 H   0  0  0  0  0  0  0  0  0  0  0  0
  -10.8706    6.0595  -12.9615 H   0  0  0  0  0  0  0  0  0  0  0  0
   -9.9873    7.2115  -11.9893 H   0  0  0  0  0  0  0  0  0  0  0  0
   -7.3501    7.0740  -11.8855 H   0  0  0  0  0  0  0  0  0  0  0  0
   -6.5392    5.8093  -12.7871 H   0  0  0  0  0  0  0  0  0  0  0  0
   -8.4328    8.0184  -13.7886 H   0  0  0  0  0  0  0  0  0  0  0  0
   -9.5634    7.1286  -14.7954 H   0  0  0  0  0  0  0  0  0  0  0  0
   -9.7255    4.4241  -14.3897 H   0  0  0  0  0  0  0  0  0  0  0  0
   -8.6807    3.7661  -13.1485 H   0  0  0  0  0  0  0  0  0  0  0  0
   -7.5513    7.5326  -16.1080 H   0  0  0  0  0  0  0  0  0  0  0  0
   -6.5203    6.9539  -14.8052 H   0  0  0  0  0  0  0  0  0  0  0  0
   -6.6979    4.2220  -14.4064 H   0  0  0  0  0  0  0  0  0  0  0  0
   -7.8227    3.4479  -15.5127 H   0  0  0  0  0  0  0  0  0  0  0  0
   -8.1347    6.1206  -19.6274 H   0  0  0  0  0  0  0  0  0  0  0  0
   -7.8402    4.5230  -20.3504 H   0  0  0  0  0  0  0  0  0  0  0  0
   -9.3619    5.3911  -20.6479 H   0  0  0  0  0  0  0  0  0  0  0  0
  -10.3270    2.6994  -18.1632 H   0  0  0  0  0  0  0  0  0  0  0  0
   -9.1267    2.4714  -19.4227 H   0  0  0  0  0  0  0  0  0  0  0  0
  -10.6505    3.3038  -19.8033 H   0  0  0  0  0  0  0  0  0  0  0  0
  -10.7010    4.9635  -17.1314 H   0  0  0  0  0  0  0  0  0  0  0  0
   -9.7955    6.3818  -17.7022 H   0  0  0  0  0  0  0  0  0  0  0  0
  -11.0743    5.6542  -18.7011 H   0  0  0  0  0  0  0  0  0  0  0  0
   -8.7544    7.2195  -10.2984 H   0  0  0  0  0  0  0  0  0  0  0  0
  1  2  1  0  0  0  0
  1  3  2  0  0  0  0
  2  5  2  0  0  0  0
  3  6  1  0  0  0  0
  4  5  1  0  0  0  0
  4  6  2  0  0  0  0
  5 16  1  0  0  0  0
  6 26  1  0  0  0  0
  7 22  1  0  0  0  0
  7 23  2  0  0  0  0
  7 25  1  0  0  0  0
  8 10  1  0  0  0  0
  8 16  1  0  0  0  0
  9 11  1  0  0  0  0
  9 16  1  0  0  0  0
 10 17  1  0  0  0  0
 11 17  1  0  0  0  0
 12 14  1  0  0  0  0
 12 17  1  0  0  0  0
 13 15  1  0  0  0  0
 13 17  1  0  0  0  0
 14 22  1  0  0  0  0
 15 22  1  0  0  0  0
 16 24  1  0  0  0  0
 18 21  1  0  0  0  0
 19 21  1  0  0  0  0
 20 21  1  0  0  0  0
 21 25  1  0  0  0  0
  1 27  1  0  0  0  0
  2 28  1  0  0  0  0
  3 29  1  0  0  0  0
  4 30  1  0  0  0  0
  8 31  1  0  0  0  0
  8 32  1  0  0  0  0
  9 33  1  0  0  0  0
  9 34  1  0  0  0  0
 10 35  1  0  0  0  0
 10 36  1  0  0  0  0
 11 37  1  0  0  0  0
 11 38  1  0  0  0  0
 12 39  1  0  0  0  0
 12 40  1  0  0  0  0
 13 41  1  0  0  0  0
 13 42  1  0  0  0  0
 14 43  1  0  0  0  0
 14 44  1  0  0  0  0
 15 45  1  0  0  0  0
 15 46  1  0  0  0  0
 18 47  1  0  0  0  0
 18 48  1  0  0  0  0
 18 49  1  0  0  0  0
 19 50  1  0  0  0  0
 19 51  1  0  0  0  0
 19 52  1  0  0  0  0
 20 53  1  0  0  0  0
 20 54  1  0  0  0  0
 20 55  1  0  0  0  0
 24 56  1  0  0  0  0
M  END
> <id>
EN300-7428346

> <smiles>
CC(C)(C)OC(=O)N1CCC2(CC1)CCC(O)(CC2)C=3C=CC=C(Br)C3

> <IUPAC Name>
tert-butyl 9-(3-bromophenyl)-9-hydroxy-3-azaspiro[5.5]undecane-3-carboxylate

> <CAS>
2309457-94-9

> <URL>
https://www.enaminestore.com/catalog/EN300-7428346

> <ROCS_ShapeQuery>
_x0404_0B

> <ROCS_TanimotoCombo>
0.436 

> <ROCS_ShapeTanimoto>
0.390 

> <ROCS_ColorTanimoto>
0.047 

> <ROCS_RefTversky>
0.340 

> <ROCS_RefColorTversky>
0.051 

> <ROCS_RefTverskyCombo>
0.392 

> <ROCS_FitTversky>
1.593 

> <ROCS_FitColorTversky>
0.326 

> <ROCS_FitTverskyCombo>
1.919 

> <ROCS_ColorScore>
-3.715

> <ROCS_Overlap>
2274.979

> <ROCS_Rank>
293                 

$$$$
untitled-dbase-180944_59
  -OEChem-08222312023D

 45 47  0     0  0  0  0  0  0999 V2000
   -9.0644    1.9386   -8.4293 C   0  0  0  0  0  0  0  0  0  0  0  0
   -9.2060    2.6018   -7.2155 C   0  0  0  0  0  0  0  0  0  0  0  0
   -8.9170    2.6749   -9.6007 C   0  0  0  0  0  0  0  0  0  0  0  0
   -9.1998    3.9991   -7.1753 C   0  0  0  0  0  0  0  0  0  0  0  0
   -8.9117    4.0798   -9.5519 C   0  0  0  0  0  0  0  0  0  0  0  0
   -9.0538    4.7610   -8.3320 C   0  0  0  0  0  0  0  0  0  0  0  0
   -8.7682    4.8747  -10.6855 C   0  0  0  0  0  0  0  0  0  0  0  0
   -8.9035    6.7612   -9.4423 C   0  0  0  0  0  0  0  0  0  0  0  0
   -8.9475    5.1486  -15.9939 C   0  0  0  0  0  0  0  0  0  0  0  0
   -7.4213    4.5025  -12.7401 C   0  0  0  0  0  0  0  0  0  0  0  0
   -9.7664    3.7606  -12.6923 C   0  0  0  0  0  0  0  0  0  0  0  0
   -7.7588    5.5098  -13.8426 C   0  0  0  0  0  0  0  0  0  0  0  0
  -10.1300    4.7601  -13.7897 C   0  0  0  0  0  0  0  0  0  0  0  0
   -8.4805    5.4895  -18.7969 C   0  0  0  0  0  0  0  0  0  0  0  0
   -6.0593    5.7350  -18.1752 C   0  0  0  0  0  0  0  0  0  0  0  0
   -7.2598    3.5802  -17.7021 C   0  0  0  0  0  0  0  0  0  0  0  0
   -7.3948    5.0993  -17.7950 C   0  0  0  0  0  0  0  0  0  0  0  0
   -9.0500    6.1043   -8.2738 N   0  0  0  0  0  0  0  0  0  0  0  0
   -8.7602    6.2208  -10.6632 N   0  0  0  0  0  0  0  0  0  0  0  0
   -8.6226    4.2693  -11.9288 N   0  0  0  0  0  0  0  0  0  0  0  0
   -8.9472    5.0975  -14.5969 N   0  0  0  0  0  0  0  0  0  0  0  0
   -9.9006    4.8216  -16.6988 O   0  0  0  0  0  0  0  0  0  0  0  0
   -7.7616    5.6042  -16.5059 O   0  0  0  0  0  0  0  0  0  0  0  0
   -8.8999    8.4681   -9.3587 Cl  0  0  0  0  0  0  0  0  0  0  0  0
   -9.0689    0.8534   -8.4626 H   0  0  0  0  0  0  0  0  0  0  0  0
   -9.3217    2.0346   -6.2964 H   0  0  0  0  0  0  0  0  0  0  0  0
   -8.8081    2.1338  -10.5370 H   0  0  0  0  0  0  0  0  0  0  0  0
   -9.3123    4.4940   -6.2124 H   0  0  0  0  0  0  0  0  0  0  0  0
   -7.0718    3.5795  -13.1989 H   0  0  0  0  0  0  0  0  0  0  0  0
   -6.6287    4.8897  -12.1035 H   0  0  0  0  0  0  0  0  0  0  0  0
  -10.6247    3.6261  -12.0325 H   0  0  0  0  0  0  0  0  0  0  0  0
   -9.5183    2.7944  -13.1351 H   0  0  0  0  0  0  0  0  0  0  0  0
   -7.9229    6.4987  -13.4094 H   0  0  0  0  0  0  0  0  0  0  0  0
   -6.9341    5.5939  -14.5556 H   0  0  0  0  0  0  0  0  0  0  0  0
  -10.9015    4.3440  -14.4307 H   0  0  0  0  0  0  0  0  0  0  0  0
  -10.5003    5.6881  -13.3595 H   0  0  0  0  0  0  0  0  0  0  0  0
   -9.4408    5.0352  -18.5275 H   0  0  0  0  0  0  0  0  0  0  0  0
   -8.6115    6.5754  -18.8473 H   0  0  0  0  0  0  0  0  0  0  0  0
   -8.2362    5.1235  -19.8007 H   0  0  0  0  0  0  0  0  0  0  0  0
   -5.2774    5.4577  -17.4590 H   0  0  0  0  0  0  0  0  0  0  0  0
   -6.1265    6.8286  -18.1506 H   0  0  0  0  0  0  0  0  0  0  0  0
   -5.7369    5.4298  -19.1759 H   0  0  0  0  0  0  0  0  0  0  0  0
   -6.4810    3.3000  -16.9835 H   0  0  0  0  0  0  0  0  0  0  0  0
   -8.1993    3.1098  -17.3944 H   0  0  0  0  0  0  0  0  0  0  0  0
   -6.9575    3.1561  -18.6665 H   0  0  0  0  0  0  0  0  0  0  0  0
  1  2  2  0  0  0  0
  1  3  1  0  0  0  0
  2  4  1  0  0  0  0
  3  5  2  0  0  0  0
  4  6  2  0  0  0  0
  5  6  1  0  0  0  0
  5  7  1  0  0  0  0
  6 18  1  0  0  0  0
  7 19  2  0  0  0  0
  7 20  1  0  0  0  0
  8 18  2  0  0  0  0
  8 19  1  0  0  0  0
  8 24  1  0  0  0  0
  9 21  1  0  0  0  0
  9 22  2  0  0  0  0
  9 23  1  0  0  0  0
 10 12  1  0  0  0  0
 10 20  1  0  0  0  0
 11 13  1  0  0  0  0
 11 20  1  0  0  0  0
 12 21  1  0  0  0  0
 13 21  1  0  0  0  0
 14 17  1  0  0  0  0
 15 17  1  0  0  0  0
 16 17  1  0  0  0  0
 17 23  1  0  0  0  0
  1 25  1  0  0  0  0
  2 26  1  0  0  0  0
  3 27  1  0  0  0  0
  4 28  1  0  0  0  0
 10 29  1  0  0  0  0
 10 30  1  0  0  0  0
 11 31  1  0  0  0  0
 11 32  1  0  0  0  0
 12 33  1  0  0  0  0
 12 34  1  0  0  0  0
 13 35  1  0  0  0  0
 13 36  1  0  0  0  0
 14 37  1  0  0  0  0
 14 38  1  0  0  0  0
 14 39  1  0  0  0  0
 15 40  1  0  0  0  0
 15 41  1  0  0  0  0
 15 42  1  0  0  0  0
 16 43  1  0  0  0  0
 16 44  1  0  0  0  0
 16 45  1  0  0  0  0
M  END
> <id>
EN300-14083445

> <smiles>
CC(C)(C)OC(=O)N1CCN(CC1)C=2N=C(Cl)N=C3C=CC=CC23

> <MDLNUMBER>
MFCD18915662

> <IUPAC Name>
tert-butyl 4-(2-chloroquinazolin-4-yl)piperazine-1-carboxylate

> <Purity>
95

> <URL>
https://www.enaminestore.com/catalog/EN300-14083445

> <ROCS_ShapeQuery>
_x0404_0B

> <ROCS_TanimotoCombo>
0.436 

> <ROCS_ShapeTanimoto>
0.375 

> <ROCS_ColorTanimoto>
0.061 

> <ROCS_RefTversky>
0.330 

> <ROCS_RefColorTversky>
0.066 

> <ROCS_RefTverskyCombo>
0.395 

> <ROCS_FitTversky>
1.590 

> <ROCS_FitColorTversky>
0.454 

> <ROCS_FitTverskyCombo>
2.043 

> <ROCS_ColorScore>
-4.738

> <ROCS_Overlap>
2201.351

> <ROCS_Rank>
294                 

$$$$
untitled-dbase-162457_21
  -OEChem-08222312023D

 53 55  0     0  0  0  0  0  0999 V2000
   -8.7464    3.4679   -9.4704 B   0  0  0  0  0  0  0  0  0  0  0  0
   -7.9946    2.5221  -11.7715 C   0  0  0  0  0  0  0  0  0  0  0  0
   -8.4450    3.5924  -11.1014 C   0  0  0  0  0  0  0  0  0  0  0  0
   -7.8052    2.8794  -13.1930 C   0  0  0  0  0  0  0  0  0  0  0  0
   -8.1414    4.9783  -14.5138 C   0  0  0  0  0  0  0  0  0  0  0  0
   -9.3186    6.6655  -11.2086 C   0  0  0  0  0  0  0  0  0  0  0  0
   -9.9734    5.5006  -11.9757 C   0  0  0  0  0  0  0  0  0  0  0  0
   -7.9284    6.0968  -11.5516 C   0  0  0  0  0  0  0  0  0  0  0  0
   -8.6058    4.7781  -11.9929 C   0  0  0  0  0  0  0  0  0  0  0  0
   -9.4918    2.6194   -7.4796 C   0  0  0  0  0  0  0  0  0  0  0  0
   -8.7812    3.9946   -7.2432 C   0  0  0  0  0  0  0  0  0  0  0  0
  -11.0342    2.6622   -7.3954 C   0  0  0  0  0  0  0  0  0  0  0  0
   -9.0025    1.4810   -6.5733 C   0  0  0  0  0  0  0  0  0  0  0  0
   -7.3691    3.8981   -6.6229 C   0  0  0  0  0  0  0  0  0  0  0  0
   -9.5918    5.0005   -6.4138 C   0  0  0  0  0  0  0  0  0  0  0  0
   -6.9772    5.5295  -17.0691 C   0  0  0  0  0  0  0  0  0  0  0  0
   -8.5993    3.8351  -17.9674 C   0  0  0  0  0  0  0  0  0  0  0  0
   -9.4545    5.9307  -16.8787 C   0  0  0  0  0  0  0  0  0  0  0  0
   -8.3466    4.8784  -16.8811 C   0  0  0  0  0  0  0  0  0  0  0  0
   -8.1711    4.2312  -13.3217 N   0  0  0  0  0  0  0  0  0  0  0  0
   -7.4033    2.0881  -14.0302 O   0  0  0  0  0  0  0  0  0  0  0  0
   -7.9441    6.1897  -14.5748 O   0  0  0  0  0  0  0  0  0  0  0  0
   -9.1471    2.2806   -8.8623 O   0  0  0  0  0  0  0  0  0  0  0  0
   -8.6204    4.5418   -8.5923 O   0  0  0  0  0  0  0  0  0  0  0  0
   -8.3594    4.1999  -15.6199 O   0  0  0  0  0  0  0  0  0  0  0  0
   -7.7867    1.5340  -11.3898 H   0  0  0  0  0  0  0  0  0  0  0  0
   -9.5251    7.6608  -11.6120 H   0  0  0  0  0  0  0  0  0  0  0  0
   -9.5420    6.6693  -10.1363 H   0  0  0  0  0  0  0  0  0  0  0  0
  -10.7857    5.0018  -11.4365 H   0  0  0  0  0  0  0  0  0  0  0  0
  -10.3674    5.7939  -12.9546 H   0  0  0  0  0  0  0  0  0  0  0  0
   -7.4154    6.6544  -12.3424 H   0  0  0  0  0  0  0  0  0  0  0  0
   -7.2408    6.0352  -10.7016 H   0  0  0  0  0  0  0  0  0  0  0  0
  -11.4232    1.6674   -7.5726 H   0  0  0  0  0  0  0  0  0  0  0  0
  -11.4080    3.3456   -8.1475 H   0  0  0  0  0  0  0  0  0  0  0  0
  -11.3226    3.0028   -6.4088 H   0  0  0  0  0  0  0  0  0  0  0  0
   -9.5489    0.5722   -6.8081 H   0  0  0  0  0  0  0  0  0  0  0  0
   -9.1722    1.7482   -5.5344 H   0  0  0  0  0  0  0  0  0  0  0  0
   -7.9412    1.3191   -6.7378 H   0  0  0  0  0  0  0  0  0  0  0  0
   -6.9697    4.8973   -6.5021 H   0  0  0  0  0  0  0  0  0  0  0  0
   -6.7338    3.3226   -7.2844 H   0  0  0  0  0  0  0  0  0  0  0  0
   -7.4415    3.4088   -5.6597 H   0  0  0  0  0  0  0  0  0  0  0  0
   -9.0226    5.9188   -6.3027 H   0  0  0  0  0  0  0  0  0  0  0  0
   -9.7957    4.5792   -5.4337 H   0  0  0  0  0  0  0  0  0  0  0  0
  -10.5291    5.2134   -6.9196 H   0  0  0  0  0  0  0  0  0  0  0  0
   -6.7920    6.2790  -16.2913 H   0  0  0  0  0  0  0  0  0  0  0  0
   -6.1709    4.7894  -17.0378 H   0  0  0  0  0  0  0  0  0  0  0  0
   -6.9240    6.0589  -18.0273 H   0  0  0  0  0  0  0  0  0  0  0  0
   -9.5808    3.3654  -17.8365 H   0  0  0  0  0  0  0  0  0  0  0  0
   -7.8606    3.0273  -17.9121 H   0  0  0  0  0  0  0  0  0  0  0  0
   -8.5567    4.2759  -18.9686 H   0  0  0  0  0  0  0  0  0  0  0  0
  -10.4370    5.4639  -16.7439 H   0  0  0  0  0  0  0  0  0  0  0  0
   -9.3096    6.6671  -16.0816 H   0  0  0  0  0  0  0  0  0  0  0  0
   -9.4923    6.4590  -17.8382 H   0  0  0  0  0  0  0  0  0  0  0  0
  1  3  1  0  0  0  0
  1 23  1  0  0  0  0
  1 24  1  0  0  0  0
  2  3  2  0  0  0  0
  2  4  1  0  0  0  0
  3  9  1  0  0  0  0
  4 20  1  0  0  0  0
  4 21  2  0  0  0  0
  5 20  1  0  0  0  0
  5 22  2  0  0  0  0
  5 25  1  0  0  0  0
  6  7  1  0  0  0  0
  6  8  1  0  0  0  0
  7  9  1  0  0  0  0
  8  9  1  0  0  0  0
  9 20  1  0  0  0  0
 10 11  1  0  0  0  0
 10 12  1  0  0  0  0
 10 13  1  0  0  0  0
 10 23  1  0  0  0  0
 11 14  1  0  0  0  0
 11 15  1  0  0  0  0
 11 24  1  0  0  0  0
 16 19  1  0  0  0  0
 17 19  1  0  0  0  0
 18 19  1  0  0  0  0
 19 25  1  0  0  0  0
  2 26  1  0  0  0  0
  6 27  1  0  0  0  0
  6 28  1  0  0  0  0
  7 29  1  0  0  0  0
  7 30  1  0  0  0  0
  8 31  1  0  0  0  0
  8 32  1  0  0  0  0
 12 33  1  0  0  0  0
 12 34  1  0  0  0  0
 12 35  1  0  0  0  0
 13 36  1  0  0  0  0
 13 37  1  0  0  0  0
 13 38  1  0  0  0  0
 14 39  1  0  0  0  0
 14 40  1  0  0  0  0
 14 41  1  0  0  0  0
 15 42  1  0  0  0  0
 15 43  1  0  0  0  0
 15 44  1  0  0  0  0
 16 45  1  0  0  0  0
 16 46  1  0  0  0  0
 16 47  1  0  0  0  0
 17 48  1  0  0  0  0
 17 49  1  0  0  0  0
 17 50  1  0  0  0  0
 18 51  1  0  0  0  0
 18 52  1  0  0  0  0
 18 53  1  0  0  0  0
M  END
> <id>
EN300-363836

> <smiles>
CC(C)(C)OC(=O)N1C(=O)C=C(B2OC(C)(C)C(C)(C)O2)C31CCC3

> <MDLNUMBER>
MFCD30727897

> <IUPAC Name>
tert-butyl 6-oxo-8-(tetramethyl-1,3,2-dioxaborolan-2-yl)-5-azaspiro[3.4]oct-7-ene-5-carboxylate

> <URL>
https://www.enaminestore.com/catalog/EN300-363836

> <ROCS_ShapeQuery>
_x0404_0B

> <ROCS_TanimotoCombo>
0.436 

> <ROCS_ShapeTanimoto>
0.341 

> <ROCS_ColorTanimoto>
0.095 

> <ROCS_RefTversky>
0.308 

> <ROCS_RefColorTversky>
0.101 

> <ROCS_RefTverskyCombo>
0.409 

> <ROCS_FitTversky>
1.458 

> <ROCS_FitColorTversky>
0.637 

> <ROCS_FitTverskyCombo>
2.095 

> <ROCS_ColorScore>
-7.261

> <ROCS_Overlap>
2058.897

> <ROCS_Rank>
295                 

$$$$
untitled-dbase-155626_2755
  -OEChem-08222312023D

 50 50  0     1  0  0  0  0  0999 V2000
   -8.7940    4.7105   -9.2757 C   0  0  0  0  0  0  0  0  0  0  0  0
   -8.2362    5.2710  -14.7610 C   0  0  0  0  0  0  0  0  0  0  0  0
   -8.5705    6.2522  -11.2074 C   0  0  0  0  0  0  0  0  0  0  0  0
   -7.7304    6.0030  -12.4525 C   0  0  0  0  0  0  0  0  0  0  0  0
   -9.7494    4.1146  -11.5395 C   0  0  0  0  0  0  0  0  0  0  0  0
   -8.9332    3.8221  -12.8057 C   0  0  2  0  0  0  0  0  0  0  0  0
  -10.9115    3.5689   -8.2273 C   0  0  0  0  0  0  0  0  0  0  0  0
   -9.8070    1.3353   -8.5441 C   0  0  0  0  0  0  0  0  0  0  0  0
   -9.0265    2.8681   -6.7139 C   0  0  0  0  0  0  0  0  0  0  0  0
   -6.7897    4.9112  -17.2048 C   0  0  0  0  0  0  0  0  0  0  0  0
   -8.1595    2.8255  -17.4924 C   0  0  0  0  0  0  0  0  0  0  0  0
   -9.2926    5.0658  -17.4201 C   0  0  0  0  0  0  0  0  0  0  0  0
   -7.8275    2.7968  -12.5406 C   0  0  0  0  0  0  0  0  0  0  0  0
   -9.6006    2.7901   -8.1278 C   0  0  0  0  0  0  0  0  0  0  0  0
   -8.1235    4.2318  -16.8981 C   0  0  0  0  0  0  0  0  0  0  0  0
   -9.0245    4.9955  -10.6237 N   0  0  0  0  0  0  0  0  0  0  0  0
   -8.3635    5.0607  -13.3802 N   0  0  0  0  0  0  0  0  0  0  0  0
   -8.7179    5.5610   -8.3909 O   0  0  0  0  0  0  0  0  0  0  0  0
   -8.1170    6.3769  -15.2855 O   0  0  0  0  0  0  0  0  0  0  0  0
   -7.4426    2.2275  -13.7766 O   0  0  0  0  0  0  0  0  0  0  0  0
   -8.6565    3.3690   -9.0359 O   0  0  0  0  0  0  0  0  0  0  0  0
   -8.2536    4.1033  -15.4775 O   0  0  0  0  0  0  0  0  0  0  0  0
   -7.9953    6.8341  -10.4802 H   0  0  0  0  0  0  0  0  0  0  0  0
   -9.4633    6.8360  -11.4612 H   0  0  0  0  0  0  0  0  0  0  0  0
   -7.5289    6.9540  -12.9568 H   0  0  0  0  0  0  0  0  0  0  0  0
   -6.7592    5.5764  -12.1753 H   0  0  0  0  0  0  0  0  0  0  0  0
  -10.6755    4.6370  -11.8102 H   0  0  0  0  0  0  0  0  0  0  0  0
  -10.0439    3.1806  -11.0522 H   0  0  0  0  0  0  0  0  0  0  0  0
   -9.6185    3.3780  -13.5364 H   0  0  0  0  0  0  0  0  0  0  0  0
  -10.7676    4.6136   -7.9293 H   0  0  0  0  0  0  0  0  0  0  0  0
  -11.3157    3.5500   -9.2447 H   0  0  0  0  0  0  0  0  0  0  0  0
  -11.6650    3.1546   -7.5478 H   0  0  0  0  0  0  0  0  0  0  0  0
   -8.8690    0.7727   -8.4743 H   0  0  0  0  0  0  0  0  0  0  0  0
  -10.1286    1.2705   -9.5899 H   0  0  0  0  0  0  0  0  0  0  0  0
  -10.5564    0.8387   -7.9194 H   0  0  0  0  0  0  0  0  0  0  0  0
   -8.0862    2.3095   -6.6423 H   0  0  0  0  0  0  0  0  0  0  0  0
   -8.8373    3.9033   -6.4120 H   0  0  0  0  0  0  0  0  0  0  0  0
   -9.7120    2.4138   -5.9894 H   0  0  0  0  0  0  0  0  0  0  0  0
   -6.7600    5.9209  -16.7798 H   0  0  0  0  0  0  0  0  0  0  0  0
   -5.9451    4.3407  -16.8050 H   0  0  0  0  0  0  0  0  0  0  0  0
   -6.6490    5.0264  -18.2856 H   0  0  0  0  0  0  0  0  0  0  0  0
   -9.1147    2.3342  -17.2748 H   0  0  0  0  0  0  0  0  0  0  0  0
   -7.3801    2.1946  -17.0498 H   0  0  0  0  0  0  0  0  0  0  0  0
   -8.0174    2.8418  -18.5778 H   0  0  0  0  0  0  0  0  0  0  0  0
  -10.2494    4.5786  -17.2003 H   0  0  0  0  0  0  0  0  0  0  0  0
   -9.3042    6.0664  -16.9761 H   0  0  0  0  0  0  0  0  0  0  0  0
   -9.2414    5.1691  -18.5101 H   0  0  0  0  0  0  0  0  0  0  0  0
   -8.2018    2.0162  -11.8813 H   0  0  0  0  0  0  0  0  0  0  0  0
   -6.9714    3.2901  -12.0848 H   0  0  0  0  0  0  0  0  0  0  0  0
   -7.1206    2.9531  -14.3392 H   0  0  0  0  0  0  0  0  0  0  0  0
  1 16  1  0  0  0  0
  1 18  2  0  0  0  0
  1 21  1  0  0  0  0
  2 17  1  0  0  0  0
  2 19  2  0  0  0  0
  2 22  1  0  0  0  0
  3  4  1  0  0  0  0
  3 16  1  0  0  0  0
  4 17  1  0  0  0  0
  5  6  1  0  0  0  0
  5 16  1  0  0  0  0
  6 13  1  0  0  0  0
  6 17  1  0  0  0  0
  7 14  1  0  0  0  0
  8 14  1  0  0  0  0
  9 14  1  0  0  0  0
 10 15  1  0  0  0  0
 11 15  1  0  0  0  0
 12 15  1  0  0  0  0
 13 20  1  0  0  0  0
 14 21  1  0  0  0  0
 15 22  1  0  0  0  0
  3 23  1  0  0  0  0
  3 24  1  0  0  0  0
  4 25  1  0  0  0  0
  4 26  1  0  0  0  0
  5 27  1  0  0  0  0
  5 28  1  0  0  0  0
  6 29  1  0  0  0  0
  7 30  1  0  0  0  0
  7 31  1  0  0  0  0
  7 32  1  0  0  0  0
  8 33  1  0  0  0  0
  8 34  1  0  0  0  0
  8 35  1  0  0  0  0
  9 36  1  0  0  0  0
  9 37  1  0  0  0  0
  9 38  1  0  0  0  0
 10 39  1  0  0  0  0
 10 40  1  0  0  0  0
 10 41  1  0  0  0  0
 11 42  1  0  0  0  0
 11 43  1  0  0  0  0
 11 44  1  0  0  0  0
 12 45  1  0  0  0  0
 12 46  1  0  0  0  0
 12 47  1  0  0  0  0
 13 48  1  0  0  0  0
 13 49  1  0  0  0  0
 20 50  1  0  0  0  0
M  END
> <id>
EN300-4353952

> <smiles>
CC(C)(C)OC(=O)N1CCN(C(CO)C1)C(=O)OC(C)(C)C

> <MDLNUMBER>
MFCD09908093

> <IUPAC Name>
1,4-di-tert-butyl 2-(hydroxymethyl)piperazine-1,4-dicarboxylate

> <CAS>
143540-05-0

> <URL>
https://www.enaminestore.com/catalog/EN300-4353952

> <ROCS_ShapeQuery>
_x0404_0B

> <ROCS_TanimotoCombo>
0.436 

> <ROCS_ShapeTanimoto>
0.324 

> <ROCS_ColorTanimoto>
0.113 

> <ROCS_RefTversky>
0.291 

> <ROCS_RefColorTversky>
0.116 

> <ROCS_RefTverskyCombo>
0.406 

> <ROCS_FitTversky>
1.542 

> <ROCS_FitColorTversky>
0.802 

> <ROCS_FitTverskyCombo>
2.344 

> <ROCS_ColorScore>
-8.363

> <ROCS_Overlap>
1938.635

> <ROCS_Rank>
296                 

$$$$
untitled-dbase-180688_363
  -OEChem-08222312023D

 44 46  0     1  0  0  0  0  0999 V2000
   -8.5282    6.0079  -10.7457 C   0  0  0  0  0  0  0  0  0  0  0  0
   -9.3408    4.6614   -9.2298 C   0  0  0  0  0  0  0  0  0  0  0  0
   -8.6024    5.8597  -14.4502 C   0  0  0  0  0  0  0  0  0  0  0  0
   -8.0408    6.4736  -12.0678 C   0  0  0  0  0  0  0  0  0  0  0  0
   -8.9542    2.8551   -6.4251 C   0  0  0  0  0  0  0  0  0  0  0  0
  -10.1890    3.4692   -7.0778 C   0  0  0  0  0  0  0  0  0  0  0  0
   -9.1262    3.7389  -11.5687 C   0  0  0  0  0  0  0  0  0  0  0  0
   -8.1313    2.2861   -7.5693 C   0  0  0  0  0  0  0  0  0  0  0  0
   -8.2386    4.0729  -12.7638 C   0  0  0  0  0  0  0  0  0  0  0  0
   -9.9266    3.4170   -8.5841 C   0  0  2  0  0  0  0  0  0  0  0  0
   -6.9940    5.1423  -16.7059 C   0  0  0  0  0  0  0  0  0  0  0  0
   -8.8816    3.6073  -17.3301 C   0  0  0  0  0  0  0  0  0  0  0  0
   -9.2670    6.0871  -17.2307 C   0  0  0  0  0  0  0  0  0  0  0  0
   -8.5021    4.9095  -16.6283 C   0  0  0  0  0  0  0  0  0  0  0  0
   -8.5700    6.6657   -9.6053 N   0  0  0  0  0  0  0  0  0  0  0  0
   -9.0857    5.8120   -8.6458 N   0  0  0  0  0  0  0  0  0  0  0  0
   -9.0050    4.7443  -10.5392 N   0  0  0  0  0  0  0  0  0  0  0  0
   -9.0479    2.2448   -8.7037 N   0  0  0  0  0  0  0  0  0  0  0  0
   -8.3513    5.4929  -13.1230 N   0  0  0  0  0  0  0  0  0  0  0  0
   -8.5899    7.0172  -14.8647 O   0  0  0  0  0  0  0  0  0  0  0  0
   -8.8733    4.7813  -15.2510 O   0  0  0  0  0  0  0  0  0  0  0  0
   -8.4830    7.4457  -12.3048 H   0  0  0  0  0  0  0  0  0  0  0  0
   -6.9518    6.5903  -12.0461 H   0  0  0  0  0  0  0  0  0  0  0  0
   -8.3835    3.6382   -5.8979 H   0  0  0  0  0  0  0  0  0  0  0  0
   -9.2191    2.0887   -5.6808 H   0  0  0  0  0  0  0  0  0  0  0  0
  -11.0697    2.8586   -6.8313 H   0  0  0  0  0  0  0  0  0  0  0  0
  -10.3698    4.4799   -6.6870 H   0  0  0  0  0  0  0  0  0  0  0  0
  -10.1813    3.7083  -11.8625 H   0  0  0  0  0  0  0  0  0  0  0  0
   -8.8439    2.7703  -11.1443 H   0  0  0  0  0  0  0  0  0  0  0  0
   -7.2422    2.9012   -7.7845 H   0  0  0  0  0  0  0  0  0  0  0  0
   -7.7751    1.2685   -7.3322 H   0  0  0  0  0  0  0  0  0  0  0  0
   -7.1842    3.8937  -12.5194 H   0  0  0  0  0  0  0  0  0  0  0  0
   -8.4919    3.4292  -13.6117 H   0  0  0  0  0  0  0  0  0  0  0  0
  -10.8773    3.1777   -9.1096 H   0  0  0  0  0  0  0  0  0  0  0  0
   -6.7175    6.0761  -16.2032 H   0  0  0  0  0  0  0  0  0  0  0  0
   -6.4348    4.3211  -16.2458 H   0  0  0  0  0  0  0  0  0  0  0  0
   -6.6669    5.2432  -17.7471 H   0  0  0  0  0  0  0  0  0  0  0  0
   -9.9628    3.4362  -17.2769 H   0  0  0  0  0  0  0  0  0  0  0  0
   -8.4087    2.7481  -16.8408 H   0  0  0  0  0  0  0  0  0  0  0  0
   -8.5831    3.6141  -18.3834 H   0  0  0  0  0  0  0  0  0  0  0  0
  -10.3488    5.9203  -17.1753 H   0  0  0  0  0  0  0  0  0  0  0  0
   -9.0350    7.0248  -16.7153 H   0  0  0  0  0  0  0  0  0  0  0  0
   -9.0264    6.2053  -18.2935 H   0  0  0  0  0  0  0  0  0  0  0  0
   -8.4912    2.3307   -9.5579 H   0  0  0  0  0  0  0  0  0  0  0  0
  1  4  1  0  0  0  0
  1 15  2  0  0  0  0
  1 17  1  0  0  0  0
  2 10  1  0  0  0  0
  2 16  2  0  0  0  0
  2 17  1  0  0  0  0
  3 19  1  0  0  0  0
  3 20  2  0  0  0  0
  3 21  1  0  0  0  0
  4 19  1  0  0  0  0
  5  6  1  0  0  0  0
  5  8  1  0  0  0  0
  6 10  1  0  0  0  0
  7  9  1  0  0  0  0
  7 17  1  0  0  0  0
  8 18  1  0  0  0  0
  9 19  1  0  0  0  0
 10 18  1  0  0  0  0
 11 14  1  0  0  0  0
 12 14  1  0  0  0  0
 13 14  1  0  0  0  0
 14 21  1  0  0  0  0
 15 16  1  0  0  0  0
  4 22  1  0  0  0  0
  4 23  1  0  0  0  0
  5 24  1  0  0  0  0
  5 25  1  0  0  0  0
  6 26  1  0  0  0  0
  6 27  1  0  0  0  0
  7 28  1  0  0  0  0
  7 29  1  0  0  0  0
  8 30  1  0  0  0  0
  8 31  1  0  0  0  0
  9 32  1  0  0  0  0
  9 33  1  0  0  0  0
 10 34  1  0  0  0  0
 11 35  1  0  0  0  0
 11 36  1  0  0  0  0
 11 37  1  0  0  0  0
 12 38  1  0  0  0  0
 12 39  1  0  0  0  0
 12 40  1  0  0  0  0
 13 41  1  0  0  0  0
 13 42  1  0  0  0  0
 13 43  1  0  0  0  0
 18 44  1  0  0  0  0
M  END
> <id>
EN300-45157384

> <smiles>
CC(C)(C)OC(=O)N1CCN2C(=NN=C2C1)C3CCCN3

> <IUPAC Name>
tert-butyl 3-(pyrrolidin-2-yl)-5H,6H,7H,8H-[1,2,4]triazolo[4,3-a]pyrazine-7-carboxylate

> <URL>
https://www.enaminestore.com/catalog/EN300-45157384

> <ROCS_ShapeQuery>
_x0404_0B

> <ROCS_TanimotoCombo>
0.436 

> <ROCS_ShapeTanimoto>
0.331 

> <ROCS_ColorTanimoto>
0.105 

> <ROCS_RefTversky>
0.296 

> <ROCS_RefColorTversky>
0.112 

> <ROCS_RefTverskyCombo>
0.407 

> <ROCS_FitTversky>
1.570 

> <ROCS_FitColorTversky>
0.638 

> <ROCS_FitTverskyCombo>
2.209 

> <ROCS_ColorScore>
-8.063

> <ROCS_Overlap>
1972.849

> <ROCS_Rank>
297                 

$$$$
untitled-dbase-181491_363
  -OEChem-08222312023D

 44 46  0     1  0  0  0  0  0999 V2000
   -8.5282    6.0079  -10.7457 C   0  0  0  0  0  0  0  0  0  0  0  0
   -9.3408    4.6614   -9.2298 C   0  0  0  0  0  0  0  0  0  0  0  0
   -8.6024    5.8597  -14.4502 C   0  0  0  0  0  0  0  0  0  0  0  0
   -8.0408    6.4736  -12.0678 C   0  0  0  0  0  0  0  0  0  0  0  0
   -8.9542    2.8551   -6.4251 C   0  0  0  0  0  0  0  0  0  0  0  0
  -10.1890    3.4692   -7.0778 C   0  0  0  0  0  0  0  0  0  0  0  0
   -9.1262    3.7389  -11.5687 C   0  0  0  0  0  0  0  0  0  0  0  0
   -8.1313    2.2861   -7.5693 C   0  0  0  0  0  0  0  0  0  0  0  0
   -8.2386    4.0729  -12.7638 C   0  0  0  0  0  0  0  0  0  0  0  0
   -9.9266    3.4170   -8.5841 C   0  0  2  0  0  0  0  0  0  0  0  0
   -6.9940    5.1423  -16.7059 C   0  0  0  0  0  0  0  0  0  0  0  0
   -8.8816    3.6073  -17.3301 C   0  0  0  0  0  0  0  0  0  0  0  0
   -9.2670    6.0871  -17.2307 C   0  0  0  0  0  0  0  0  0  0  0  0
   -8.5021    4.9095  -16.6283 C   0  0  0  0  0  0  0  0  0  0  0  0
   -8.5700    6.6657   -9.6053 N   0  0  0  0  0  0  0  0  0  0  0  0
   -9.0857    5.8120   -8.6458 N   0  0  0  0  0  0  0  0  0  0  0  0
   -9.0050    4.7443  -10.5392 N   0  0  0  0  0  0  0  0  0  0  0  0
   -9.0479    2.2448   -8.7037 N   0  0  0  0  0  0  0  0  0  0  0  0
   -8.3513    5.4929  -13.1230 N   0  0  0  0  0  0  0  0  0  0  0  0
   -8.5899    7.0172  -14.8647 O   0  0  0  0  0  0  0  0  0  0  0  0
   -8.8733    4.7813  -15.2510 O   0  0  0  0  0  0  0  0  0  0  0  0
   -8.4830    7.4457  -12.3048 H   0  0  0  0  0  0  0  0  0  0  0  0
   -6.9518    6.5903  -12.0461 H   0  0  0  0  0  0  0  0  0  0  0  0
   -8.3835    3.6382   -5.8979 H   0  0  0  0  0  0  0  0  0  0  0  0
   -9.2191    2.0887   -5.6808 H   0  0  0  0  0  0  0  0  0  0  0  0
  -11.0697    2.8586   -6.8313 H   0  0  0  0  0  0  0  0  0  0  0  0
  -10.3698    4.4799   -6.6870 H   0  0  0  0  0  0  0  0  0  0  0  0
  -10.1813    3.7083  -11.8625 H   0  0  0  0  0  0  0  0  0  0  0  0
   -8.8439    2.7703  -11.1443 H   0  0  0  0  0  0  0  0  0  0  0  0
   -7.2422    2.9012   -7.7845 H   0  0  0  0  0  0  0  0  0  0  0  0
   -7.7751    1.2685   -7.3322 H   0  0  0  0  0  0  0  0  0  0  0  0
   -7.1842    3.8937  -12.5194 H   0  0  0  0  0  0  0  0  0  0  0  0
   -8.4919    3.4292  -13.6117 H   0  0  0  0  0  0  0  0  0  0  0  0
  -10.8773    3.1777   -9.1096 H   0  0  0  0  0  0  0  0  0  0  0  0
   -6.7175    6.0761  -16.2032 H   0  0  0  0  0  0  0  0  0  0  0  0
   -6.4348    4.3211  -16.2458 H   0  0  0  0  0  0  0  0  0  0  0  0
   -6.6669    5.2432  -17.7471 H   0  0  0  0  0  0  0  0  0  0  0  0
   -9.9628    3.4362  -17.2769 H   0  0  0  0  0  0  0  0  0  0  0  0
   -8.4087    2.7481  -16.8408 H   0  0  0  0  0  0  0  0  0  0  0  0
   -8.5831    3.6141  -18.3834 H   0  0  0  0  0  0  0  0  0  0  0  0
  -10.3488    5.9203  -17.1753 H   0  0  0  0  0  0  0  0  0  0  0  0
   -9.0350    7.0248  -16.7153 H   0  0  0  0  0  0  0  0  0  0  0  0
   -9.0264    6.2053  -18.2935 H   0  0  0  0  0  0  0  0  0  0  0  0
   -8.4912    2.3307   -9.5579 H   0  0  0  0  0  0  0  0  0  0  0  0
  1  4  1  0  0  0  0
  1 15  2  0  0  0  0
  1 17  1  0  0  0  0
  2 10  1  0  0  0  0
  2 16  2  0  0  0  0
  2 17  1  0  0  0  0
  3 19  1  0  0  0  0
  3 20  2  0  0  0  0
  3 21  1  0  0  0  0
  4 19  1  0  0  0  0
  5  6  1  0  0  0  0
  5  8  1  0  0  0  0
  6 10  1  0  0  0  0
  7  9  1  0  0  0  0
  7 17  1  0  0  0  0
  8 18  1  0  0  0  0
  9 19  1  0  0  0  0
 10 18  1  0  0  0  0
 11 14  1  0  0  0  0
 12 14  1  0  0  0  0
 13 14  1  0  0  0  0
 14 21  1  0  0  0  0
 15 16  1  0  0  0  0
  4 22  1  0  0  0  0
  4 23  1  0  0  0  0
  5 24  1  0  0  0  0
  5 25  1  0  0  0  0
  6 26  1  0  0  0  0
  6 27  1  0  0  0  0
  7 28  1  0  0  0  0
  7 29  1  0  0  0  0
  8 30  1  0  0  0  0
  8 31  1  0  0  0  0
  9 32  1  0  0  0  0
  9 33  1  0  0  0  0
 10 34  1  0  0  0  0
 11 35  1  0  0  0  0
 11 36  1  0  0  0  0
 11 37  1  0  0  0  0
 12 38  1  0  0  0  0
 12 39  1  0  0  0  0
 12 40  1  0  0  0  0
 13 41  1  0  0  0  0
 13 42  1  0  0  0  0
 13 43  1  0  0  0  0
 18 44  1  0  0  0  0
M  END
> <id>
EN300-45376781

> <smiles>
Cl.CC(C)(C)OC(=O)N1CCN2C(=NN=C2C1)C3CCCN3

> <IUPAC Name>
tert-butyl 3-(pyrrolidin-2-yl)-5H,6H,7H,8H-[1,2,4]triazolo[4,3-a]pyrazine-7-carboxylate hydrochloride

> <Purity>
95

> <URL>
https://www.enaminestore.com/catalog/EN300-45376781

> <ROCS_ShapeQuery>
_x0404_0B

> <ROCS_TanimotoCombo>
0.436 

> <ROCS_ShapeTanimoto>
0.331 

> <ROCS_ColorTanimoto>
0.105 

> <ROCS_RefTversky>
0.296 

> <ROCS_RefColorTversky>
0.112 

> <ROCS_RefTverskyCombo>
0.407 

> <ROCS_FitTversky>
1.570 

> <ROCS_FitColorTversky>
0.638 

> <ROCS_FitTverskyCombo>
2.209 

> <ROCS_ColorScore>
-8.063

> <ROCS_Overlap>
1972.849

> <ROCS_Rank>
298                 

$$$$
untitled-dbase-93914_410
  -OEChem-08222312023D

 63 65  0     0  0  0  0  0  0999 V2000
   -8.4586    5.4918  -15.2723 B   0  0  0  0  0  0  0  0  0  0  0  0
   -9.6883    4.9723  -13.0154 C   0  0  0  0  0  0  0  0  0  0  0  0
   -8.7672    5.7346  -13.6260 C   0  0  0  0  0  0  0  0  0  0  0  0
   -9.5844    3.0818   -7.7459 C   0  0  0  0  0  0  0  0  0  0  0  0
  -10.0232    5.1196  -11.5560 C   0  0  0  0  0  0  0  0  0  0  0  0
   -7.9871    6.8171  -12.9252 C   0  0  0  0  0  0  0  0  0  0  0  0
   -8.5305    7.1343  -11.5236 C   0  0  0  0  0  0  0  0  0  0  0  0
   -9.5561    6.3150   -9.3569 C   0  0  0  0  0  0  0  0  0  0  0  0
   -7.7033    4.9751  -10.4615 C   0  0  0  0  0  0  0  0  0  0  0  0
   -9.1077    5.4806   -8.1562 C   0  0  0  0  0  0  0  0  0  0  0  0
   -8.0176    3.7650   -9.5802 C   0  0  0  0  0  0  0  0  0  0  0  0
   -8.9437    5.8727  -10.7210 C   0  0  0  0  0  0  0  0  0  0  0  0
   -8.7319    4.7756  -17.4289 C   0  0  0  0  0  0  0  0  0  0  0  0
   -7.4010    5.5903  -17.2997 C   0  0  0  0  0  0  0  0  0  0  0  0
   -8.5488    3.2450  -17.5378 C   0  0  0  0  0  0  0  0  0  0  0  0
   -9.6483    5.2226  -18.5767 C   0  0  0  0  0  0  0  0  0  0  0  0
   -7.4531    7.0177  -17.8896 C   0  0  0  0  0  0  0  0  0  0  0  0
   -6.1620    4.8888  -17.8738 C   0  0  0  0  0  0  0  0  0  0  0  0
   -9.9890    1.7209   -5.2620 C   0  0  0  0  0  0  0  0  0  0  0  0
  -11.7687    3.4379   -4.8223 C   0  0  0  0  0  0  0  0  0  0  0  0
  -11.9956    1.8730   -6.7736 C   0  0  0  0  0  0  0  0  0  0  0  0
  -11.0181    2.6548   -5.8972 C   0  0  0  0  0  0  0  0  0  0  0  0
   -8.9492    4.0746   -8.4969 N   0  0  0  0  0  0  0  0  0  0  0  0
   -9.4988    1.8764   -7.9713 O   0  0  0  0  0  0  0  0  0  0  0  0
   -9.4254    5.0355  -16.1653 O   0  0  0  0  0  0  0  0  0  0  0  0
   -7.2156    5.7305  -15.8536 O   0  0  0  0  0  0  0  0  0  0  0  0
  -10.3273    3.6030   -6.7186 O   0  0  0  0  0  0  0  0  0  0  0  0
  -10.2428    4.2138  -13.5601 H   0  0  0  0  0  0  0  0  0  0  0  0
  -10.9800    5.6532  -11.4963 H   0  0  0  0  0  0  0  0  0  0  0  0
  -10.2030    4.1223  -11.1431 H   0  0  0  0  0  0  0  0  0  0  0  0
   -6.9356    6.5101  -12.8449 H   0  0  0  0  0  0  0  0  0  0  0  0
   -8.0016    7.7449  -13.5128 H   0  0  0  0  0  0  0  0  0  0  0  0
   -7.7775    7.7136  -10.9728 H   0  0  0  0  0  0  0  0  0  0  0  0
   -9.4038    7.7946  -11.6289 H   0  0  0  0  0  0  0  0  0  0  0  0
  -10.6572    6.2971   -9.4159 H   0  0  0  0  0  0  0  0  0  0  0  0
   -9.2895    7.3688   -9.1644 H   0  0  0  0  0  0  0  0  0  0  0  0
   -6.9289    5.5671   -9.9626 H   0  0  0  0  0  0  0  0  0  0  0  0
   -7.2707    4.6168  -11.3978 H   0  0  0  0  0  0  0  0  0  0  0  0
   -8.1680    5.8910   -7.7605 H   0  0  0  0  0  0  0  0  0  0  0  0
   -9.8423    5.5432   -7.3401 H   0  0  0  0  0  0  0  0  0  0  0  0
   -8.4705    2.9548  -10.1729 H   0  0  0  0  0  0  0  0  0  0  0  0
   -7.0743    3.3575   -9.1869 H   0  0  0  0  0  0  0  0  0  0  0  0
   -9.5230    2.7800  -17.6222 H   0  0  0  0  0  0  0  0  0  0  0  0
   -8.0434    2.8879  -16.6493 H   0  0  0  0  0  0  0  0  0  0  0  0
   -7.9552    3.0241  -18.4161 H   0  0  0  0  0  0  0  0  0  0  0  0
  -10.5411    4.6043  -18.5879 H   0  0  0  0  0  0  0  0  0  0  0  0
   -9.1220    5.1171  -19.5209 H   0  0  0  0  0  0  0  0  0  0  0  0
   -9.9283    6.2619  -18.4313 H   0  0  0  0  0  0  0  0  0  0  0  0
   -6.4893    7.4909  -17.7493 H   0  0  0  0  0  0  0  0  0  0  0  0
   -8.2213    7.5819  -17.3760 H   0  0  0  0  0  0  0  0  0  0  0  0
   -7.6841    6.9529  -18.9456 H   0  0  0  0  0  0  0  0  0  0  0  0
   -5.2921    5.5252  -17.7400 H   0  0  0  0  0  0  0  0  0  0  0  0
   -6.3128    4.6984  -18.9324 H   0  0  0  0  0  0  0  0  0  0  0  0
   -6.0066    3.9477  -17.3543 H   0  0  0  0  0  0  0  0  0  0  0  0
   -9.4480    1.1569   -6.0304 H   0  0  0  0  0  0  0  0  0  0  0  0
   -9.2610    2.2732   -4.6590 H   0  0  0  0  0  0  0  0  0  0  0  0
  -10.4778    0.9787   -4.6205 H   0  0  0  0  0  0  0  0  0  0  0  0
  -12.5082    4.1093   -5.2735 H   0  0  0  0  0  0  0  0  0  0  0  0
  -11.0822    4.0738   -4.2516 H   0  0  0  0  0  0  0  0  0  0  0  0
  -12.2857    2.7718   -4.1240 H   0  0  0  0  0  0  0  0  0  0  0  0
  -12.7339    2.5427   -7.2293 H   0  0  0  0  0  0  0  0  0  0  0  0
  -11.4778    1.3340   -7.5735 H   0  0  0  0  0  0  0  0  0  0  0  0
  -12.5618    1.1494   -6.1760 H   0  0  0  0  0  0  0  0  0  0  0  0
  1  3  1  0  0  0  0
  1 25  1  0  0  0  0
  1 26  1  0  0  0  0
  2  3  2  0  0  0  0
  2  5  1  0  0  0  0
  3  6  1  0  0  0  0
  4 23  1  0  0  0  0
  4 24  2  0  0  0  0
  4 27  1  0  0  0  0
  5 12  1  0  0  0  0
  6  7  1  0  0  0  0
  7 12  1  0  0  0  0
  8 10  1  0  0  0  0
  8 12  1  0  0  0  0
  9 11  1  0  0  0  0
  9 12  1  0  0  0  0
 10 23  1  0  0  0  0
 11 23  1  0  0  0  0
 13 14  1  0  0  0  0
 13 15  1  0  0  0  0
 13 16  1  0  0  0  0
 13 25  1  0  0  0  0
 14 17  1  0  0  0  0
 14 18  1  0  0  0  0
 14 26  1  0  0  0  0
 19 22  1  0  0  0  0
 20 22  1  0  0  0  0
 21 22  1  0  0  0  0
 22 27  1  0  0  0  0
  2 28  1  0  0  0  0
  5 29  1  0  0  0  0
  5 30  1  0  0  0  0
  6 31  1  0  0  0  0
  6 32  1  0  0  0  0
  7 33  1  0  0  0  0
  7 34  1  0  0  0  0
  8 35  1  0  0  0  0
  8 36  1  0  0  0  0
  9 37  1  0  0  0  0
  9 38  1  0  0  0  0
 10 39  1  0  0  0  0
 10 40  1  0  0  0  0
 11 41  1  0  0  0  0
 11 42  1  0  0  0  0
 15 43  1  0  0  0  0
 15 44  1  0  0  0  0
 15 45  1  0  0  0  0
 16 46  1  0  0  0  0
 16 47  1  0  0  0  0
 16 48  1  0  0  0  0
 17 49  1  0  0  0  0
 17 50  1  0  0  0  0
 17 51  1  0  0  0  0
 18 52  1  0  0  0  0
 18 53  1  0  0  0  0
 18 54  1  0  0  0  0
 19 55  1  0  0  0  0
 19 56  1  0  0  0  0
 19 57  1  0  0  0  0
 20 58  1  0  0  0  0
 20 59  1  0  0  0  0
 20 60  1  0  0  0  0
 21 61  1  0  0  0  0
 21 62  1  0  0  0  0
 21 63  1  0  0  0  0
M  END
> <id>
EN300-7440747

> <smiles>
CC(C)(C)OC(=O)N1CCC2(CC1)CCC(=CC2)B3OC(C)(C)C(C)(C)O3

> <MDLNUMBER>
MFCD22683429

> <IUPAC Name>
tert-butyl 9-(tetramethyl-1,3,2-dioxaborolan-2-yl)-3-azaspiro[5.5]undec-8-ene-3-carboxylate

> <CAS>
1628502-01-1

> <Purity>
95

> <URL>
https://www.enaminestore.com/catalog/EN300-7440747

> <ROCS_ShapeQuery>
_x0404_0B

> <ROCS_TanimotoCombo>
0.436 

> <ROCS_ShapeTanimoto>
0.392 

> <ROCS_ColorTanimoto>
0.044 

> <ROCS_RefTversky>
0.343 

> <ROCS_RefColorTversky>
0.049 

> <ROCS_RefTverskyCombo>
0.392 

> <ROCS_FitTversky>
1.564 

> <ROCS_FitColorTversky>
0.336 

> <ROCS_FitTverskyCombo>
1.899 

> <ROCS_ColorScore>
-3.501

> <ROCS_Overlap>
2294.970

> <ROCS_Rank>
299                 

$$$$
untitled-dbase-121637_13
  -OEChem-08222312023D

 38 41  0     0  0  0  0  0  0999 V2000
   -8.2389    4.8426  -18.6661 C   0  0  0  0  0  0  0  0  0  0  0  0
   -9.1007    3.9662  -18.0068 C   0  0  0  0  0  0  0  0  0  0  0  0
   -7.4187    5.6989  -17.9314 C   0  0  0  0  0  0  0  0  0  0  0  0
   -9.1425    3.9462  -16.6127 C   0  0  0  0  0  0  0  0  0  0  0  0
   -7.4605    5.6789  -16.5373 C   0  0  0  0  0  0  0  0  0  0  0  0
   -8.3224    4.8025  -15.8779 C   0  0  0  0  0  0  0  0  0  0  0  0
   -8.2944    4.3009  -12.2598 C   0  0  0  0  0  0  0  0  0  0  0  0
   -8.2047    3.8769  -10.9896 C   0  0  0  0  0  0  0  0  0  0  0  0
   -8.6941    5.6810  -12.5290 C   0  0  0  0  0  0  0  0  0  0  0  0
   -8.0879    3.7014  -13.5948 C   0  0  0  0  0  0  0  0  0  0  0  0
   -8.9053    6.0828  -10.3008 C   0  0  0  0  0  0  0  0  0  0  0  0
   -7.8324    2.4511  -10.6470 C   0  0  0  0  0  0  0  0  0  0  0  0
   -8.9899    1.6796  -10.0084 C   0  0  0  0  0  0  0  0  0  0  0  0
   -9.1615    1.9418   -8.5137 C   0  0  0  0  0  0  0  0  0  0  0  0
   -9.4526    3.3927   -8.1394 C   0  0  0  0  0  0  0  0  0  0  0  0
   -8.3363    4.3570   -8.5347 C   0  0  0  0  0  0  0  0  0  0  0  0
   -8.7291    5.9550  -13.7987 N   0  0  0  0  0  0  0  0  0  0  0  0
   -9.0080    6.5379  -11.5188 N   0  0  0  0  0  0  0  0  0  0  0  0
   -8.3650    4.7818  -14.4586 N   0  0  0  0  0  0  0  0  0  0  0  0
   -8.4822    4.7852   -9.9381 N   0  0  0  0  0  0  0  0  0  0  0  0
   -7.7599    2.5531  -13.8195 O   0  0  0  0  0  0  0  0  0  0  0  0
   -9.3768    7.2680   -9.0691 S   0  0  0  0  0  0  0  0  0  0  0  0
   -8.2055    4.8580  -19.7517 H   0  0  0  0  0  0  0  0  0  0  0  0
   -9.7387    3.2988  -18.5784 H   0  0  0  0  0  0  0  0  0  0  0  0
   -6.7470    6.3806  -18.4452 H   0  0  0  0  0  0  0  0  0  0  0  0
   -9.8180    3.2588  -16.1097 H   0  0  0  0  0  0  0  0  0  0  0  0
   -6.8167    6.3508  -15.9752 H   0  0  0  0  0  0  0  0  0  0  0  0
   -7.4529    1.9294  -11.5338 H   0  0  0  0  0  0  0  0  0  0  0  0
   -6.9984    2.4331   -9.9384 H   0  0  0  0  0  0  0  0  0  0  0  0
   -9.9202    1.9823  -10.5059 H   0  0  0  0  0  0  0  0  0  0  0  0
   -8.8802    0.6025  -10.1874 H   0  0  0  0  0  0  0  0  0  0  0  0
   -9.9643    1.3018   -8.1264 H   0  0  0  0  0  0  0  0  0  0  0  0
   -8.2449    1.6279   -7.9991 H   0  0  0  0  0  0  0  0  0  0  0  0
  -10.3667    3.6926   -8.6673 H   0  0  0  0  0  0  0  0  0  0  0  0
   -9.6790    3.4763   -7.0694 H   0  0  0  0  0  0  0  0  0  0  0  0
   -8.3135    5.2297   -7.8707 H   0  0  0  0  0  0  0  0  0  0  0  0
   -7.3763    3.8664   -8.3550 H   0  0  0  0  0  0  0  0  0  0  0  0
   -9.6775    8.2422   -9.9302 H   0  0  0  0  0  0  0  0  0  0  0  0
  1  2  2  0  0  0  0
  1  3  1  0  0  0  0
  2  4  1  0  0  0  0
  3  5  2  0  0  0  0
  4  6  2  0  0  0  0
  5  6  1  0  0  0  0
  6 19  1  0  0  0  0
  7  8  2  0  0  0  0
  7  9  1  0  0  0  0
  7 10  1  0  0  0  0
  8 12  1  0  0  0  0
  8 20  1  0  0  0  0
  9 17  2  0  0  0  0
  9 18  1  0  0  0  0
 10 19  1  0  0  0  0
 10 21  2  0  0  0  0
 11 18  2  0  0  0  0
 11 20  1  0  0  0  0
 11 22  1  0  0  0  0
 12 13  1  0  0  0  0
 13 14  1  0  0  0  0
 14 15  1  0  0  0  0
 15 16  1  0  0  0  0
 16 20  1  0  0  0  0
 17 19  1  0  0  0  0
  1 23  1  0  0  0  0
  2 24  1  0  0  0  0
  3 25  1  0  0  0  0
  4 26  1  0  0  0  0
  5 27  1  0  0  0  0
 12 28  1  0  0  0  0
 12 29  1  0  0  0  0
 13 30  1  0  0  0  0
 13 31  1  0  0  0  0
 14 32  1  0  0  0  0
 14 33  1  0  0  0  0
 15 34  1  0  0  0  0
 15 35  1  0  0  0  0
 16 36  1  0  0  0  0
 16 37  1  0  0  0  0
 22 38  1  0  0  0  0
M  END
> <id>
EN300-03292

> <smiles>
SC1=NC2=NN(C=3C=CC=CC3)C(=O)C2=C4CCCCCN14

> <MDLNUMBER>
MFCD03955632

> <IUPAC Name>
4-phenyl-8-sulfanyl-4,5,7,9-tetraazatricyclo[7.5.0.0,2,6]tetradeca-1,5,7-trien-3-one

> <CAS>
721908-07-2

> <Purity>
95

> <URL>
https://www.enaminestore.com/catalog/EN300-03292

> <ROCS_ShapeQuery>
_x0404_0B

> <ROCS_TanimotoCombo>
0.436 

> <ROCS_ShapeTanimoto>
0.361 

> <ROCS_ColorTanimoto>
0.075 

> <ROCS_RefTversky>
0.318 

> <ROCS_RefColorTversky>
0.080 

> <ROCS_RefTverskyCombo>
0.398 

> <ROCS_FitTversky>
1.613 

> <ROCS_FitColorTversky>
0.509 

> <ROCS_FitTverskyCombo>
2.122 

> <ROCS_ColorScore>
-5.812

> <ROCS_Overlap>
2120.920

> <ROCS_Rank>
300                 

$$$$
untitled-dbase-116874_187
  -OEChem-08222312023D

 39 41  0     0  0  0  0  0  0999 V2000
   -7.6433    2.8732  -14.6969 C   0  0  0  0  0  0  0  0  0  0  0  0
   -8.4146    5.8674  -17.6454 C   0  0  0  0  0  0  0  0  0  0  0  0
   -8.0856    4.5579  -18.0192 C   0  0  0  0  0  0  0  0  0  0  0  0
   -7.8973    3.8609  -15.6897 C   0  0  0  0  0  0  0  0  0  0  0  0
   -8.4833    6.1673  -16.2771 C   0  0  0  0  0  0  0  0  0  0  0  0
   -8.2264    5.1704  -15.3460 C   0  0  0  0  0  0  0  0  0  0  0  0
   -7.8321    3.5747  -17.0579 C   0  0  0  0  0  0  0  0  0  0  0  0
   -9.1412    5.1400   -9.4362 C   0  0  0  0  0  0  0  0  0  0  0  0
   -9.4762    4.7020  -11.9433 C   0  0  0  0  0  0  0  0  0  0  0  0
   -7.9205    6.0936  -11.5036 C   0  0  0  0  0  0  0  0  0  0  0  0
   -8.2130    5.1673  -12.7119 C   0  0  0  0  0  0  0  0  0  0  0  0
   -8.8165    3.8429   -6.9136 C   0  0  0  0  0  0  0  0  0  0  0  0
   -9.6471    1.7775   -8.0770 C   0  0  0  0  0  0  0  0  0  0  0  0
   -7.5133    2.8658   -8.8323 C   0  0  0  0  0  0  0  0  0  0  0  0
   -8.9048    3.1013   -8.2466 C   0  0  0  0  0  0  0  0  0  0  0  0
   -7.4361    2.0678  -13.8875 N   0  0  0  0  0  0  0  0  0  0  0  0
   -8.7751    7.3355  -15.6237 N   0  0  0  0  0  0  0  0  0  0  0  0
   -8.7096    7.1038  -14.3171 N   0  0  0  0  0  0  0  0  0  0  0  0
   -8.3824    5.8116  -14.1512 N   0  0  0  0  0  0  0  0  0  0  0  0
   -8.8657    5.2824  -10.7669 N   0  0  0  0  0  0  0  0  0  0  0  0
   -8.9492    6.0124   -8.5939 O   0  0  0  0  0  0  0  0  0  0  0  0
   -9.6563    3.9027   -9.1649 O   0  0  0  0  0  0  0  0  0  0  0  0
   -7.5218    2.3354  -17.4687 F   0  0  0  0  0  0  0  0  0  0  0  0
   -8.6102    6.6238  -18.3986 H   0  0  0  0  0  0  0  0  0  0  0  0
   -8.0272    4.3018  -19.0740 H   0  0  0  0  0  0  0  0  0  0  0  0
  -10.4232    5.1844  -12.2048 H   0  0  0  0  0  0  0  0  0  0  0  0
   -9.6075    3.6184  -11.8863 H   0  0  0  0  0  0  0  0  0  0  0  0
   -6.8965    6.0412  -11.1252 H   0  0  0  0  0  0  0  0  0  0  0  0
   -8.2410    7.1367  -11.5883 H   0  0  0  0  0  0  0  0  0  0  0  0
   -7.4285    4.3210  -12.8118 H   0  0  0  0  0  0  0  0  0  0  0  0
   -8.2843    4.7937   -7.0311 H   0  0  0  0  0  0  0  0  0  0  0  0
   -9.8091    4.0488   -6.5000 H   0  0  0  0  0  0  0  0  0  0  0  0
   -8.2495    3.2601   -6.1787 H   0  0  0  0  0  0  0  0  0  0  0  0
   -9.7129    1.2421   -9.0310 H   0  0  0  0  0  0  0  0  0  0  0  0
  -10.6783    1.9478   -7.7470 H   0  0  0  0  0  0  0  0  0  0  0  0
   -9.1526    1.1276   -7.3479 H   0  0  0  0  0  0  0  0  0  0  0  0
   -7.5764    2.3339   -9.7885 H   0  0  0  0  0  0  0  0  0  0  0  0
   -6.9797    3.8078   -8.9955 H   0  0  0  0  0  0  0  0  0  0  0  0
   -6.9120    2.2357   -8.1670 H   0  0  0  0  0  0  0  0  0  0  0  0
  1  4  1  0  0  0  0
  1 16  3  0  0  0  0
  2  3  1  0  0  0  0
  2  5  2  0  0  0  0
  3  7  2  0  0  0  0
  4  6  2  0  0  0  0
  4  7  1  0  0  0  0
  5  6  1  0  0  0  0
  5 17  1  0  0  0  0
  6 19  1  0  0  0  0
  7 23  1  0  0  0  0
  8 20  1  0  0  0  0
  8 21  2  0  0  0  0
  8 22  1  0  0  0  0
  9 11  1  0  0  0  0
  9 20  1  0  0  0  0
 10 11  1  0  0  0  0
 10 20  1  0  0  0  0
 11 19  1  0  0  0  0
 12 15  1  0  0  0  0
 13 15  1  0  0  0  0
 14 15  1  0  0  0  0
 15 22  1  0  0  0  0
 17 18  2  0  0  0  0
 18 19  1  0  0  0  0
  2 24  1  0  0  0  0
  3 25  1  0  0  0  0
  9 26  1  0  0  0  0
  9 27  1  0  0  0  0
 10 28  1  0  0  0  0
 10 29  1  0  0  0  0
 11 30  1  0  0  0  0
 12 31  1  0  0  0  0
 12 32  1  0  0  0  0
 12 33  1  0  0  0  0
 13 34  1  0  0  0  0
 13 35  1  0  0  0  0
 13 36  1  0  0  0  0
 14 37  1  0  0  0  0
 14 38  1  0  0  0  0
 14 39  1  0  0  0  0
M  END
> <id>
EN300-6750498

> <smiles>
CC(C)(C)OC(=O)N1CC(C1)N2N=NC=3C=CC(F)=C(C#N)C23

> <IUPAC Name>
tert-butyl 3-(7-cyano-6-fluoro-1H-1,2,3-benzotriazol-1-yl)azetidine-1-carboxylate

> <CAS>
2287313-88-4

> <URL>
https://www.enaminestore.com/catalog/EN300-6750498

> <ROCS_ShapeQuery>
_x0404_0B

> <ROCS_TanimotoCombo>
0.436 

> <ROCS_ShapeTanimoto>
0.334 

> <ROCS_ColorTanimoto>
0.102 

> <ROCS_RefTversky>
0.301 

> <ROCS_RefColorTversky>
0.107 

> <ROCS_RefTverskyCombo>
0.409 

> <ROCS_FitTversky>
1.488 

> <ROCS_FitColorTversky>
0.662 

> <ROCS_FitTverskyCombo>
2.150 

> <ROCS_ColorScore>
-7.764

> <ROCS_Overlap>
2010.632

> <ROCS_Rank>
301                 

$$$$
untitled-dbase-148188_6526
  -OEChem-08222312023D

 51 52  0     0  0  0  0  0  0999 V2000
   -9.0757    4.5122  -19.5034 C   0  0  0  0  0  0  0  0  0  0  0  0
   -8.6515    6.1343  -14.4771 C   0  0  0  0  0  0  0  0  0  0  0  0
   -8.6418    5.0952   -9.1418 C   0  0  0  0  0  0  0  0  0  0  0  0
   -7.6623    5.5340  -17.7407 C   0  0  0  0  0  0  0  0  0  0  0  0
   -9.5981    4.0319  -17.1364 C   0  0  0  0  0  0  0  0  0  0  0  0
   -7.1558    5.4008  -16.3088 C   0  0  0  0  0  0  0  0  0  0  0  0
   -9.0672    3.9540  -15.7034 C   0  0  0  0  0  0  0  0  0  0  0  0
   -9.6154    6.6971  -12.2661 C   0  0  0  0  0  0  0  0  0  0  0  0
   -9.0698    4.3374  -12.7377 C   0  0  0  0  0  0  0  0  0  0  0  0
   -8.7042    6.6824  -11.0462 C   0  0  0  0  0  0  0  0  0  0  0  0
   -8.1804    4.2958  -11.4937 C   0  0  0  0  0  0  0  0  0  0  0  0
   -8.4806    4.3062  -18.1449 C   0  0  0  0  0  0  0  0  0  0  0  0
  -10.8689    3.8209   -8.5910 C   0  0  0  0  0  0  0  0  0  0  0  0
   -9.5696    1.6721   -8.5283 C   0  0  0  0  0  0  0  0  0  0  0  0
   -9.3715    3.3092   -6.6338 C   0  0  0  0  0  0  0  0  0  0  0  0
   -9.5727    3.1491   -8.1400 C   0  0  0  0  0  0  0  0  0  0  0  0
   -8.2576    5.1380  -15.3829 N   0  0  0  0  0  0  0  0  0  0  0  0
   -9.1876    5.7074  -13.2535 N   0  0  0  0  0  0  0  0  0  0  0  0
   -8.5529    5.3263  -10.5184 N   0  0  0  0  0  0  0  0  0  0  0  0
  -10.1215    4.0153  -19.8943 O   0  0  0  0  0  0  0  0  0  0  0  0
   -8.5301    7.3362  -14.7454 O   0  0  0  0  0  0  0  0  0  0  0  0
   -8.8448    5.9721   -8.3039 O   0  0  0  0  0  0  0  0  0  0  0  0
   -8.2924    5.3282  -20.2504 O   0  0  0  0  0  0  0  0  0  0  0  0
   -8.4759    3.7751   -8.8157 O   0  0  0  0  0  0  0  0  0  0  0  0
   -8.2564    6.4375  -17.8337 H   0  0  0  0  0  0  0  0  0  0  0  0
   -6.8078    5.6180  -18.4078 H   0  0  0  0  0  0  0  0  0  0  0  0
  -10.0810    3.0810  -17.3860 H   0  0  0  0  0  0  0  0  0  0  0  0
  -10.3669    4.8088  -17.1928 H   0  0  0  0  0  0  0  0  0  0  0  0
   -6.4204    4.5908  -16.2901 H   0  0  0  0  0  0  0  0  0  0  0  0
   -6.6577    6.3221  -15.9813 H   0  0  0  0  0  0  0  0  0  0  0  0
   -9.8918    3.9217  -14.9863 H   0  0  0  0  0  0  0  0  0  0  0  0
   -8.4785    3.0439  -15.5701 H   0  0  0  0  0  0  0  0  0  0  0  0
  -10.6333    6.4205  -11.9674 H   0  0  0  0  0  0  0  0  0  0  0  0
   -9.6922    7.6987  -12.6889 H   0  0  0  0  0  0  0  0  0  0  0  0
   -8.6566    3.6854  -13.5100 H   0  0  0  0  0  0  0  0  0  0  0  0
  -10.0781    3.9860  -12.5038 H   0  0  0  0  0  0  0  0  0  0  0  0
   -7.7022    7.0384  -11.3114 H   0  0  0  0  0  0  0  0  0  0  0  0
   -9.1016    7.3621  -10.2876 H   0  0  0  0  0  0  0  0  0  0  0  0
   -8.2253    3.3017  -11.0397 H   0  0  0  0  0  0  0  0  0  0  0  0
   -7.1368    4.4824  -11.7712 H   0  0  0  0  0  0  0  0  0  0  0  0
   -7.8362    3.4443  -18.2152 H   0  0  0  0  0  0  0  0  0  0  0  0
  -10.8750    4.8812   -8.3142 H   0  0  0  0  0  0  0  0  0  0  0  0
  -11.0076    3.7435   -9.6743 H   0  0  0  0  0  0  0  0  0  0  0  0
  -11.7364    3.3677   -8.0978 H   0  0  0  0  0  0  0  0  0  0  0  0
   -8.6414    1.1861   -8.2066 H   0  0  0  0  0  0  0  0  0  0  0  0
   -9.6184    1.5546   -9.6169 H   0  0  0  0  0  0  0  0  0  0  0  0
  -10.4140    1.1357   -8.0835 H   0  0  0  0  0  0  0  0  0  0  0  0
   -8.4419    2.8273   -6.3101 H   0  0  0  0  0  0  0  0  0  0  0  0
   -9.3342    4.3636   -6.3417 H   0  0  0  0  0  0  0  0  0  0  0  0
  -10.1816    2.8225   -6.0786 H   0  0  0  0  0  0  0  0  0  0  0  0
   -8.6648    5.4742  -21.1461 H   0  0  0  0  0  0  0  0  0  0  0  0
  1 12  1  0  0  0  0
  1 20  2  0  0  0  0
  1 23  1  0  0  0  0
  2 17  1  0  0  0  0
  2 18  1  0  0  0  0
  2 21  2  0  0  0  0
  3 19  1  0  0  0  0
  3 22  2  0  0  0  0
  3 24  1  0  0  0  0
  4  6  1  0  0  0  0
  4 12  1  0  0  0  0
  5  7  1  0  0  0  0
  5 12  1  0  0  0  0
  6 17  1  0  0  0  0
  7 17  1  0  0  0  0
  8 10  1  0  0  0  0
  8 18  1  0  0  0  0
  9 11  1  0  0  0  0
  9 18  1  0  0  0  0
 10 19  1  0  0  0  0
 11 19  1  0  0  0  0
 13 16  1  0  0  0  0
 14 16  1  0  0  0  0
 15 16  1  0  0  0  0
 16 24  1  0  0  0  0
  4 25  1  0  0  0  0
  4 26  1  0  0  0  0
  5 27  1  0  0  0  0
  5 28  1  0  0  0  0
  6 29  1  0  0  0  0
  6 30  1  0  0  0  0
  7 31  1  0  0  0  0
  7 32  1  0  0  0  0
  8 33  1  0  0  0  0
  8 34  1  0  0  0  0
  9 35  1  0  0  0  0
  9 36  1  0  0  0  0
 10 37  1  0  0  0  0
 10 38  1  0  0  0  0
 11 39  1  0  0  0  0
 11 40  1  0  0  0  0
 12 41  1  0  0  0  0
 13 42  1  0  0  0  0
 13 43  1  0  0  0  0
 13 44  1  0  0  0  0
 14 45  1  0  0  0  0
 14 46  1  0  0  0  0
 14 47  1  0  0  0  0
 15 48  1  0  0  0  0
 15 49  1  0  0  0  0
 15 50  1  0  0  0  0
 23 51  1  0  0  0  0
M  END
> <id>
EN300-1071841

> <smiles>
CC(C)(C)OC(=O)N1CCN(CC1)C(=O)N2CCC(CC2)C(=O)O

> <MDLNUMBER>
MFCD21145639

> <IUPAC Name>
1-{4-[(tert-butoxy)carbonyl]piperazine-1-carbonyl}piperidine-4-carboxylic acid

> <CAS>
2206987-26-8

> <URL>
https://www.enaminestore.com/catalog/EN300-1071841

> <ROCS_ShapeQuery>
_x0404_0B

> <ROCS_TanimotoCombo>
0.436 

> <ROCS_ShapeTanimoto>
0.378 

> <ROCS_ColorTanimoto>
0.058 

> <ROCS_RefTversky>
0.330 

> <ROCS_RefColorTversky>
0.063 

> <ROCS_RefTverskyCombo>
0.393 

> <ROCS_FitTversky>
1.631 

> <ROCS_FitColorTversky>
0.399 

> <ROCS_FitTverskyCombo>
2.030 

> <ROCS_ColorScore>
-4.546

> <ROCS_Overlap>
2204.410

> <ROCS_Rank>
302                 

$$$$
untitled-dbase-19186_1171
  -OEChem-08222312023D

 49 50  0     1  0  0  0  0  0999 V2000
   -7.0607    5.3224  -16.4382 C   0  0  0  0  0  0  0  0  0  0  0  0
   -9.2140    4.3872  -15.8677 C   0  0  0  0  0  0  0  0  0  0  0  0
   -8.7694    5.1028  -18.1320 C   0  0  0  0  0  0  0  0  0  0  0  0
   -7.9267    4.7722  -15.4933 C   0  0  0  0  0  0  0  0  0  0  0  0
   -7.4821    5.4878  -17.7576 C   0  0  0  0  0  0  0  0  0  0  0  0
   -9.6354    4.5525  -17.1871 C   0  0  0  0  0  0  0  0  0  0  0  0
   -8.8688    4.5693   -9.9320 C   0  0  0  0  0  0  0  0  0  0  0  0
   -7.7208    5.8495  -13.1938 C   0  0  0  0  0  0  0  0  0  0  0  0
   -8.8263    5.6594  -12.1592 C   0  0  0  0  0  0  0  0  0  0  0  0
   -7.9752    3.3188  -11.9123 C   0  0  0  0  0  0  0  0  0  0  0  0
   -7.4658    4.5915  -14.0527 C   0  0  1  0  0  0  0  0  0  0  0  0
   -8.0868    3.3210  -13.4348 C   0  0  1  0  0  0  0  0  0  0  0  0
   -6.5564    6.0757  -18.7686 C   0  0  0  0  0  0  0  0  0  0  0  0
  -11.0121    4.1408  -17.5870 C   0  0  0  0  0  0  0  0  0  0  0  0
  -10.7166    4.2207   -7.7758 C   0  0  0  0  0  0  0  0  0  0  0  0
   -9.8481    1.8669   -7.6553 C   0  0  0  0  0  0  0  0  0  0  0  0
   -8.2964    3.7958   -7.2312 C   0  0  0  0  0  0  0  0  0  0  0  0
   -9.5127    3.3117   -8.0191 C   0  0  0  0  0  0  0  0  0  0  0  0
   -8.5659    4.5079  -11.2961 N   0  0  0  0  0  0  0  0  0  0  0  0
   -8.8450    5.5990   -9.2607 O   0  0  0  0  0  0  0  0  0  0  0  0
   -7.4289    2.1627  -13.9479 O   0  0  0  0  0  0  0  0  0  0  0  0
   -9.1935    3.3421   -9.4149 O   0  0  0  0  0  0  0  0  0  0  0  0
   -6.0570    5.6231  -16.1468 H   0  0  0  0  0  0  0  0  0  0  0  0
   -9.8891    3.9582  -15.1308 H   0  0  0  0  0  0  0  0  0  0  0  0
   -9.0982    5.2316  -19.1605 H   0  0  0  0  0  0  0  0  0  0  0  0
   -7.9826    6.7041  -13.8451 H   0  0  0  0  0  0  0  0  0  0  0  0
   -6.7884    6.1453  -12.6808 H   0  0  0  0  0  0  0  0  0  0  0  0
   -8.8995    6.5436  -11.5094 H   0  0  0  0  0  0  0  0  0  0  0  0
   -9.7948    5.5531  -12.6659 H   0  0  0  0  0  0  0  0  0  0  0  0
   -8.4172    2.3921  -11.5119 H   0  0  0  0  0  0  0  0  0  0  0  0
   -6.9153    3.2846  -11.6029 H   0  0  0  0  0  0  0  0  0  0  0  0
   -6.3526    4.4243  -14.1258 H   0  0  0  0  0  0  0  0  0  0  0  0
   -9.1565    3.2442  -13.7204 H   0  0  0  0  0  0  0  0  0  0  0  0
   -5.9721    5.2859  -19.2562 H   0  0  0  0  0  0  0  0  0  0  0  0
   -7.1082    6.6275  -19.5406 H   0  0  0  0  0  0  0  0  0  0  0  0
   -5.8609    6.7877  -18.3053 H   0  0  0  0  0  0  0  0  0  0  0  0
  -11.7122    4.9757  -17.4606 H   0  0  0  0  0  0  0  0  0  0  0  0
  -11.0423    3.8171  -18.6355 H   0  0  0  0  0  0  0  0  0  0  0  0
  -11.3661    3.2951  -16.9832 H   0  0  0  0  0  0  0  0  0  0  0  0
  -10.4799    5.2587   -8.0358 H   0  0  0  0  0  0  0  0  0  0  0  0
  -11.5856    3.9049   -8.3621 H   0  0  0  0  0  0  0  0  0  0  0  0
  -10.9965    4.2236   -6.7161 H   0  0  0  0  0  0  0  0  0  0  0  0
   -8.9871    1.2111   -7.8283 H   0  0  0  0  0  0  0  0  0  0  0  0
  -10.6592    1.4840   -8.2851 H   0  0  0  0  0  0  0  0  0  0  0  0
  -10.1496    1.7739   -6.6069 H   0  0  0  0  0  0  0  0  0  0  0  0
   -7.4327    3.1439   -7.4056 H   0  0  0  0  0  0  0  0  0  0  0  0
   -8.0185    4.8184   -7.5063 H   0  0  0  0  0  0  0  0  0  0  0  0
   -8.4933    3.7664   -6.1534 H   0  0  0  0  0  0  0  0  0  0  0  0
   -7.5210    2.1999  -14.9119 H   0  0  0  0  0  0  0  0  0  0  0  0
  1  4  1  0  0  0  0
  1  5  2  0  0  0  0
  2  4  2  0  0  0  0
  2  6  1  0  0  0  0
  3  5  1  0  0  0  0
  3  6  2  0  0  0  0
  4 11  1  0  0  0  0
  5 13  1  0  0  0  0
  6 14  1  0  0  0  0
  7 19  1  0  0  0  0
  7 20  2  0  0  0  0
  7 22  1  0  0  0  0
  8  9  1  0  0  0  0
  8 11  1  0  0  0  0
  9 19  1  0  0  0  0
 10 12  1  0  0  0  0
 10 19  1  0  0  0  0
 11 12  1  0  0  0  0
 12 21  1  0  0  0  0
 15 18  1  0  0  0  0
 16 18  1  0  0  0  0
 17 18  1  0  0  0  0
 18 22  1  0  0  0  0
  1 23  1  0  0  0  0
  2 24  1  0  0  0  0
  3 25  1  0  0  0  0
  8 26  1  0  0  0  0
  8 27  1  0  0  0  0
  9 28  1  0  0  0  0
  9 29  1  0  0  0  0
 10 30  1  0  0  0  0
 10 31  1  0  0  0  0
 11 32  1  0  0  0  0
 12 33  1  0  0  0  0
 13 34  1  0  0  0  0
 13 35  1  0  0  0  0
 13 36  1  0  0  0  0
 14 37  1  0  0  0  0
 14 38  1  0  0  0  0
 14 39  1  0  0  0  0
 15 40  1  0  0  0  0
 15 41  1  0  0  0  0
 15 42  1  0  0  0  0
 16 43  1  0  0  0  0
 16 44  1  0  0  0  0
 16 45  1  0  0  0  0
 17 46  1  0  0  0  0
 17 47  1  0  0  0  0
 17 48  1  0  0  0  0
 21 49  1  0  0  0  0
M  END
> <id>
EN300-94540

> <smiles>
CC=1C=C(C)C=C(C1)C2CCN(CC2O)C(=O)OC(C)(C)C

> <MDLNUMBER>
MFCD20502186

> <IUPAC Name>
tert-butyl 4-(3,5-dimethylphenyl)-3-hydroxypiperidine-1-carboxylate

> <CAS>
1354951-64-6

> <URL>
https://www.enaminestore.com/catalog/EN300-94540

> <ROCS_ShapeQuery>
_x0404_0B

> <ROCS_TanimotoCombo>
0.436 

> <ROCS_ShapeTanimoto>
0.345 

> <ROCS_ColorTanimoto>
0.090 

> <ROCS_RefTversky>
0.305 

> <ROCS_RefColorTversky>
0.094 

> <ROCS_RefTverskyCombo>
0.399 

> <ROCS_FitTversky>
1.615 

> <ROCS_FitColorTversky>
0.714 

> <ROCS_FitTverskyCombo>
2.329 

> <ROCS_ColorScore>
-6.768

> <ROCS_Overlap>
2037.080

> <ROCS_Rank>
303                 

$$$$
untitled-dbase-153683_4773
  -OEChem-08222312023D

 56 57  0     0  0  0  0  0  0999 V2000
   -6.4548    2.3611  -13.3436 C   0  0  0  0  0  0  0  0  0  0  0  0
   -6.9479    3.6245  -13.6773 C   0  0  0  0  0  0  0  0  0  0  0  0
   -8.0084    2.2497  -11.5166 C   0  0  0  0  0  0  0  0  0  0  0  0
   -6.9861    1.6723  -12.2633 C   0  0  0  0  0  0  0  0  0  0  0  0
   -8.5201    3.5200  -11.8450 C   0  0  0  0  0  0  0  0  0  0  0  0
   -7.9880    4.2290  -12.9435 C   0  0  0  0  0  0  0  0  0  0  0  0
   -6.4738    0.3580  -11.9114 C   0  0  0  0  0  0  0  0  0  0  0  0
   -8.5430    5.8940  -14.6929 C   0  0  0  0  0  0  0  0  0  0  0  0
   -9.2062    5.0815   -8.7769 C   0  0  0  0  0  0  0  0  0  0  0  0
   -9.6354    4.0702  -10.9977 C   0  0  0  0  0  0  0  0  0  0  0  0
   -8.9474    6.4941  -12.3094 C   0  0  0  0  0  0  0  0  0  0  0  0
   -8.5179    6.3003  -10.8566 C   0  0  0  0  0  0  0  0  0  0  0  0
   -7.4191    5.7715  -17.3281 C   0  0  0  0  0  0  0  0  0  0  0  0
   -8.8154    3.7052  -17.6285 C   0  0  0  0  0  0  0  0  0  0  0  0
   -9.9290    5.9172  -17.2101 C   0  0  0  0  0  0  0  0  0  0  0  0
   -9.5838    4.4367   -6.0143 C   0  0  0  0  0  0  0  0  0  0  0  0
   -9.9607    2.0827   -6.8053 C   0  0  0  0  0  0  0  0  0  0  0  0
   -7.7410    3.1920   -7.1931 C   0  0  0  0  0  0  0  0  0  0  0  0
   -8.7035    5.0525  -16.9181 C   0  0  0  0  0  0  0  0  0  0  0  0
   -9.2507    3.4043   -7.0904 C   0  0  0  0  0  0  0  0  0  0  0  0
   -8.4556    5.5408  -13.3215 N   0  0  0  0  0  0  0  0  0  0  0  0
   -9.1618    5.1768  -10.1748 N   0  0  0  0  0  0  0  0  0  0  0  0
   -6.4463   -0.1186  -10.7719 O   0  0  0  0  0  0  0  0  0  0  0  0
   -8.4920    7.0372  -15.1430 O   0  0  0  0  0  0  0  0  0  0  0  0
   -8.8294    5.9625   -8.0064 O   0  0  0  0  0  0  0  0  0  0  0  0
   -6.0103   -0.3268  -12.9929 O   0  0  0  0  0  0  0  0  0  0  0  0
   -8.6521    4.7949  -15.5099 O   0  0  0  0  0  0  0  0  0  0  0  0
   -9.7297    3.8884   -8.3503 O   0  0  0  0  0  0  0  0  0  0  0  0
   -5.6428    1.9359  -13.9278 H   0  0  0  0  0  0  0  0  0  0  0  0
   -6.4568    4.1446  -14.4958 H   0  0  0  0  0  0  0  0  0  0  0  0
   -8.4231    1.7022  -10.6740 H   0  0  0  0  0  0  0  0  0  0  0  0
  -10.4436    4.4319  -11.6297 H   0  0  0  0  0  0  0  0  0  0  0  0
  -10.0449    3.2915  -10.3572 H   0  0  0  0  0  0  0  0  0  0  0  0
  -10.0709    6.5209  -12.3397 H   0  0  0  0  0  0  0  0  0  0  0  0
   -8.6941    7.5329  -12.6660 H   0  0  0  0  0  0  0  0  0  0  0  0
   -7.4261    6.1235  -10.8122 H   0  0  0  0  0  0  0  0  0  0  0  0
   -8.6950    7.2323  -10.2857 H   0  0  0  0  0  0  0  0  0  0  0  0
   -7.3351    6.7390  -16.8204 H   0  0  0  0  0  0  0  0  0  0  0  0
   -6.5308    5.1765  -17.0920 H   0  0  0  0  0  0  0  0  0  0  0  0
   -7.4168    5.9853  -18.4031 H   0  0  0  0  0  0  0  0  0  0  0  0
   -9.7356    3.1858  -17.3373 H   0  0  0  0  0  0  0  0  0  0  0  0
   -7.9865    3.0457  -17.3472 H   0  0  0  0  0  0  0  0  0  0  0  0
   -8.8124    3.8210  -18.7171 H   0  0  0  0  0  0  0  0  0  0  0  0
  -10.8504    5.4017  -16.9161 H   0  0  0  0  0  0  0  0  0  0  0  0
   -9.8835    6.8736  -16.6790 H   0  0  0  0  0  0  0  0  0  0  0  0
  -10.0167    6.1190  -18.2838 H   0  0  0  0  0  0  0  0  0  0  0  0
   -9.0761    5.3868   -6.2154 H   0  0  0  0  0  0  0  0  0  0  0  0
  -10.6609    4.6239   -5.9546 H   0  0  0  0  0  0  0  0  0  0  0  0
   -9.2355    4.1023   -5.0304 H   0  0  0  0  0  0  0  0  0  0  0  0
   -9.7245    1.3390   -7.5750 H   0  0  0  0  0  0  0  0  0  0  0  0
  -11.0489    2.2121   -6.8247 H   0  0  0  0  0  0  0  0  0  0  0  0
   -9.6775    1.6741   -5.8299 H   0  0  0  0  0  0  0  0  0  0  0  0
   -7.5018    2.4515   -7.9649 H   0  0  0  0  0  0  0  0  0  0  0  0
   -7.2182    4.1234   -7.4338 H   0  0  0  0  0  0  0  0  0  0  0  0
   -7.3379    2.7995   -6.2525 H   0  0  0  0  0  0  0  0  0  0  0  0
   -5.6628   -1.2157  -12.7660 H   0  0  0  0  0  0  0  0  0  0  0  0
  1  2  1  0  0  0  0
  1  4  2  0  0  0  0
  2  6  2  0  0  0  0
  3  4  1  0  0  0  0
  3  5  2  0  0  0  0
  4  7  1  0  0  0  0
  5  6  1  0  0  0  0
  5 10  1  0  0  0  0
  6 21  1  0  0  0  0
  7 23  2  0  0  0  0
  7 26  1  0  0  0  0
  8 21  1  0  0  0  0
  8 24  2  0  0  0  0
  8 27  1  0  0  0  0
  9 22  1  0  0  0  0
  9 25  2  0  0  0  0
  9 28  1  0  0  0  0
 10 22  1  0  0  0  0
 11 12  1  0  0  0  0
 11 21  1  0  0  0  0
 12 22  1  0  0  0  0
 13 19  1  0  0  0  0
 14 19  1  0  0  0  0
 15 19  1  0  0  0  0
 16 20  1  0  0  0  0
 17 20  1  0  0  0  0
 18 20  1  0  0  0  0
 19 27  1  0  0  0  0
 20 28  1  0  0  0  0
  1 29  1  0  0  0  0
  2 30  1  0  0  0  0
  3 31  1  0  0  0  0
 10 32  1  0  0  0  0
 10 33  1  0  0  0  0
 11 34  1  0  0  0  0
 11 35  1  0  0  0  0
 12 36  1  0  0  0  0
 12 37  1  0  0  0  0
 13 38  1  0  0  0  0
 13 39  1  0  0  0  0
 13 40  1  0  0  0  0
 14 41  1  0  0  0  0
 14 42  1  0  0  0  0
 14 43  1  0  0  0  0
 15 44  1  0  0  0  0
 15 45  1  0  0  0  0
 15 46  1  0  0  0  0
 16 47  1  0  0  0  0
 16 48  1  0  0  0  0
 16 49  1  0  0  0  0
 17 50  1  0  0  0  0
 17 51  1  0  0  0  0
 17 52  1  0  0  0  0
 18 53  1  0  0  0  0
 18 54  1  0  0  0  0
 18 55  1  0  0  0  0
 26 56  1  0  0  0  0
M  END
> <id>
EN300-28302801

> <smiles>
CC(C)(C)OC(=O)N1CCN(C(=O)OC(C)(C)C)C=2C=CC(=CC2C1)C(=O)O

> <IUPAC Name>
1,4-bis[(tert-butoxy)carbonyl]-2,3,4,5-tetrahydro-1H-1,4-benzodiazepine-7-carboxylic acid

> <CAS>
2680843-10-9

> <URL>
https://www.enaminestore.com/catalog/EN300-28302801

> <ROCS_ShapeQuery>
_x0404_0B

> <ROCS_TanimotoCombo>
0.436 

> <ROCS_ShapeTanimoto>
0.350 

> <ROCS_ColorTanimoto>
0.085 

> <ROCS_RefTversky>
0.319 

> <ROCS_RefColorTversky>
0.092 

> <ROCS_RefTverskyCombo>
0.411 

> <ROCS_FitTversky>
1.385 

> <ROCS_FitColorTversky>
0.538 

> <ROCS_FitTverskyCombo>
1.923 

> <ROCS_ColorScore>
-6.642

> <ROCS_Overlap>
2135.308

> <ROCS_Rank>
304                 

$$$$
untitled-dbase-104734_0
  -OEChem-08222312023D

 35 36  0     0  0  0  0  0  0999 V2000
   -8.6930    6.7289  -10.8597 C   0  0  0  0  0  0  0  0  0  0  0  0
   -8.6299    6.2678  -12.1770 C   0  0  0  0  0  0  0  0  0  0  0  0
   -9.1594    4.0846   -7.6879 C   0  0  0  0  0  0  0  0  0  0  0  0
   -8.8797    4.0110  -11.3888 C   0  0  0  0  0  0  0  0  0  0  0  0
   -9.0584    5.4503   -7.5162 C   0  0  0  0  0  0  0  0  0  0  0  0
   -8.9432    4.4751  -10.0639 C   0  0  0  0  0  0  0  0  0  0  0  0
   -8.8491    5.8551   -9.7872 C   0  0  0  0  0  0  0  0  0  0  0  0
   -8.7233    4.9073  -12.4423 C   0  0  0  0  0  0  0  0  0  0  0  0
   -9.1001    3.5950   -8.9847 C   0  0  0  0  0  0  0  0  0  0  0  0
   -8.5087    5.1761  -14.9307 C   0  0  0  0  0  0  0  0  0  0  0  0
   -7.0205    5.6830  -17.3198 C   0  0  0  0  0  0  0  0  0  0  0  0
   -8.3537    3.8080  -18.3279 C   0  0  0  0  0  0  0  0  0  0  0  0
   -9.5219    5.8787  -17.5181 C   0  0  0  0  0  0  0  0  0  0  0  0
   -8.3483    4.9274  -17.2891 C   0  0  0  0  0  0  0  0  0  0  0  0
   -8.9062    6.3332   -8.5297 N   0  0  0  0  0  0  0  0  0  0  0  0
   -8.6608    4.4430  -13.7561 N   0  0  0  0  0  0  0  0  0  0  0  0
   -8.3995    6.3917  -15.0350 O   0  0  0  0  0  0  0  0  0  0  0  0
   -9.1979    2.2466   -9.1703 O   0  0  0  0  0  0  0  0  0  0  0  0
   -8.4977    4.3207  -16.0002 O   0  0  0  0  0  0  0  0  0  0  0  0
   -8.6176    7.7996  -10.6786 H   0  0  0  0  0  0  0  0  0  0  0  0
   -8.5076    6.9840  -12.9856 H   0  0  0  0  0  0  0  0  0  0  0  0
   -9.2806    3.4242   -6.8366 H   0  0  0  0  0  0  0  0  0  0  0  0
   -8.9518    2.9470  -11.6069 H   0  0  0  0  0  0  0  0  0  0  0  0
   -9.0990    5.8906   -6.5253 H   0  0  0  0  0  0  0  0  0  0  0  0
   -7.0126    6.4873  -16.5756 H   0  0  0  0  0  0  0  0  0  0  0  0
   -6.1734    5.0181  -17.1222 H   0  0  0  0  0  0  0  0  0  0  0  0
   -6.8653    6.1613  -18.2936 H   0  0  0  0  0  0  0  0  0  0  0  0
   -9.3046    3.2632  -18.3094 H   0  0  0  0  0  0  0  0  0  0  0  0
   -7.5716    3.0712  -18.1119 H   0  0  0  0  0  0  0  0  0  0  0  0
   -8.1956    4.1950  -19.3397 H   0  0  0  0  0  0  0  0  0  0  0  0
  -10.4744    5.3370  -17.4961 H   0  0  0  0  0  0  0  0  0  0  0  0
   -9.5555    6.6676  -16.7597 H   0  0  0  0  0  0  0  0  0  0  0  0
   -9.4559    6.3481  -18.5063 H   0  0  0  0  0  0  0  0  0  0  0  0
   -8.7368    3.4271  -13.8728 H   0  0  0  0  0  0  0  0  0  0  0  0
   -9.3010    1.7997   -8.3164 H   0  0  0  0  0  0  0  0  0  0  0  0
  1  2  1  0  0  0  0
  1  7  2  0  0  0  0
  2  8  2  0  0  0  0
  3  5  1  0  0  0  0
  3  9  2  0  0  0  0
  4  6  2  0  0  0  0
  4  8  1  0  0  0  0
  5 15  2  0  0  0  0
  6  7  1  0  0  0  0
  6  9  1  0  0  0  0
  7 15  1  0  0  0  0
  8 16  1  0  0  0  0
  9 18  1  0  0  0  0
 10 16  1  0  0  0  0
 10 17  2  0  0  0  0
 10 19  1  0  0  0  0
 11 14  1  0  0  0  0
 12 14  1  0  0  0  0
 13 14  1  0  0  0  0
 14 19  1  0  0  0  0
  1 20  1  0  0  0  0
  2 21  1  0  0  0  0
  3 22  1  0  0  0  0
  4 23  1  0  0  0  0
  5 24  1  0  0  0  0
 11 25  1  0  0  0  0
 11 26  1  0  0  0  0
 11 27  1  0  0  0  0
 12 28  1  0  0  0  0
 12 29  1  0  0  0  0
 12 30  1  0  0  0  0
 13 31  1  0  0  0  0
 13 32  1  0  0  0  0
 13 33  1  0  0  0  0
 16 34  1  0  0  0  0
 18 35  1  0  0  0  0
M  END
> <id>
EN300-26665295

> <smiles>
CC(C)(C)OC(=O)NC=1C=CC=2N=CC=C(O)C2C1

> <IUPAC Name>
tert-butyl N-(4-hydroxyquinolin-6-yl)carbamate

> <CAS>
2413885-20-6

> <URL>
https://www.enaminestore.com/catalog/EN300-26665295

> <ROCS_ShapeQuery>
_x0404_0B

> <ROCS_TanimotoCombo>
0.436 

> <ROCS_ShapeTanimoto>
0.339 

> <ROCS_ColorTanimoto>
0.096 

> <ROCS_RefTversky>
0.298 

> <ROCS_RefColorTversky>
0.102 

> <ROCS_RefTverskyCombo>
0.399 

> <ROCS_FitTversky>
1.697 

> <ROCS_FitColorTversky>
0.645 

> <ROCS_FitTverskyCombo>
2.343 

> <ROCS_ColorScore>
-7.347

> <ROCS_Overlap>
1985.218

> <ROCS_Rank>
305                 

$$$$
untitled-dbase-89843_154
  -OEChem-08222312023D

 54 57  0     1  0  0  0  0  0999 V2000
   -9.1957    2.5461   -7.1906 C   0  0  0  0  0  0  0  0  0  0  0  0
   -8.1828    3.5037   -7.2414 C   0  0  0  0  0  0  0  0  0  0  0  0
  -10.0843    2.4136   -8.2577 C   0  0  0  0  0  0  0  0  0  0  0  0
   -8.0585    4.3289   -8.3591 C   0  0  0  0  0  0  0  0  0  0  0  0
   -9.9601    3.2388   -9.3754 C   0  0  0  0  0  0  0  0  0  0  0  0
   -7.8813    5.9861  -10.7106 C   0  0  0  0  0  0  0  0  0  0  0  0
   -8.9471    4.1964   -9.4261 C   0  0  0  0  0  0  0  0  0  0  0  0
   -8.1425    6.5605  -11.9327 C   0  0  0  0  0  0  0  0  0  0  0  0
   -9.2876    5.8683  -12.4281 C   0  0  0  0  0  0  0  0  0  0  0  0
   -6.4639    6.1253  -14.8261 C   0  0  0  0  0  0  0  0  0  0  0  0
   -7.1872    7.2550  -14.8590 C   0  0  0  0  0  0  0  0  0  0  0  0
  -10.0591    6.0263  -13.6498 C   0  0  0  0  0  0  0  0  0  0  0  0
   -8.3034    5.3915  -17.3083 C   0  0  0  0  0  0  0  0  0  0  0  0
   -6.0320    5.2393  -15.9629 C   0  0  0  0  0  0  0  0  0  0  0  0
   -7.5938    8.0901  -13.6724 C   0  0  0  0  0  0  0  0  0  0  0  0
  -10.1755    3.8722  -16.6294 C   0  0  0  0  0  0  0  0  0  0  0  0
   -6.0325    4.6833  -18.4667 C   0  0  0  0  0  0  0  0  0  0  0  0
   -6.1174    6.7273  -18.0966 C   0  0  0  0  0  0  0  0  0  0  0  0
  -10.9261    4.7511  -15.6202 C   0  0  1  0  0  0  0  0  0  0  0  0
   -6.7128    5.5052  -17.3189 C   0  0  0  0  0  0  0  0  0  0  0  0
  -12.3364    4.2200  -15.3792 C   0  0  0  0  0  0  0  0  0  0  0  0
   -9.6787    4.9145  -11.5644 N   0  0  0  0  0  0  0  0  0  0  0  0
   -8.8217    5.0208  -10.5423 N   0  0  0  0  0  0  0  0  0  0  0  0
  -10.2037    4.8399  -14.3550 N   0  0  0  0  0  0  0  0  0  0  0  0
   -8.7653    4.2071  -16.7469 N   0  0  0  0  0  0  0  0  0  0  0  0
   -6.0813    5.8910  -19.3102 N   0  0  0  0  0  0  0  0  0  0  0  0
  -10.5342    7.1051  -13.9894 O   0  0  0  0  0  0  0  0  0  0  0  0
   -9.0607    6.2538  -17.7660 O   0  0  0  0  0  0  0  0  0  0  0  0
   -7.3113    7.5231  -12.4006 O   0  0  0  0  0  0  0  0  0  0  0  0
   -9.2918    1.9022   -6.3215 H   0  0  0  0  0  0  0  0  0  0  0  0
   -7.4899    3.6061   -6.4113 H   0  0  0  0  0  0  0  0  0  0  0  0
  -10.8720    1.6667   -8.2180 H   0  0  0  0  0  0  0  0  0  0  0  0
   -7.2639    5.0707   -8.3862 H   0  0  0  0  0  0  0  0  0  0  0  0
  -10.6590    3.1244  -10.2004 H   0  0  0  0  0  0  0  0  0  0  0  0
   -7.1245    6.1983   -9.9571 H   0  0  0  0  0  0  0  0  0  0  0  0
   -6.1296    5.7767  -13.8081 H   0  0  0  0  0  0  0  0  0  0  0  0
   -7.5572    7.6109  -15.8383 H   0  0  0  0  0  0  0  0  0  0  0  0
   -4.9184    5.2999  -16.0952 H   0  0  0  0  0  0  0  0  0  0  0  0
   -6.1902    4.1780  -15.6342 H   0  0  0  0  0  0  0  0  0  0  0  0
   -7.1169    9.1180  -13.7532 H   0  0  0  0  0  0  0  0  0  0  0  0
   -8.7042    8.2967  -13.7497 H   0  0  0  0  0  0  0  0  0  0  0  0
  -10.2334    2.8186  -16.3379 H   0  0  0  0  0  0  0  0  0  0  0  0
  -10.6352    3.9607  -17.6194 H   0  0  0  0  0  0  0  0  0  0  0  0
   -5.0252    4.3078  -18.2714 H   0  0  0  0  0  0  0  0  0  0  0  0
   -6.6334    3.8603  -18.8692 H   0  0  0  0  0  0  0  0  0  0  0  0
   -6.7902    7.5879  -18.1869 H   0  0  0  0  0  0  0  0  0  0  0  0
   -5.1409    7.0895  -17.7630 H   0  0  0  0  0  0  0  0  0  0  0  0
  -11.0114    5.7569  -16.0295 H   0  0  0  0  0  0  0  0  0  0  0  0
  -12.2849    3.2134  -14.9690 H   0  0  0  0  0  0  0  0  0  0  0  0
  -12.8855    4.1961  -16.3183 H   0  0  0  0  0  0  0  0  0  0  0  0
  -12.8574    4.8669  -14.6760 H   0  0  0  0  0  0  0  0  0  0  0  0
   -9.7907    4.0002  -13.9762 H   0  0  0  0  0  0  0  0  0  0  0  0
   -8.0819    3.5043  -16.4616 H   0  0  0  0  0  0  0  0  0  0  0  0
   -5.2375    6.0266  -19.8672 H   0  0  0  0  0  0  0  0  0  0  0  0
  1  2  2  0  0  0  0
  1  3  1  0  0  0  0
  2  4  1  0  0  0  0
  3  5  2  0  0  0  0
  4  7  2  0  0  0  0
  5  7  1  0  0  0  0
  6  8  2  0  0  0  0
  6 23  1  0  0  0  0
  7 23  1  0  0  0  0
  8  9  1  0  0  0  0
  8 29  1  0  0  0  0
  9 12  1  0  0  0  0
  9 22  2  0  0  0  0
 10 11  2  0  0  0  0
 10 14  1  0  0  0  0
 11 15  1  0  0  0  0
 12 24  1  0  0  0  0
 12 27  2  0  0  0  0
 13 20  1  0  0  0  0
 13 25  1  0  0  0  0
 13 28  2  0  0  0  0
 14 20  1  0  0  0  0
 15 29  1  0  0  0  0
 16 19  1  0  0  0  0
 16 25  1  0  0  0  0
 17 20  1  0  0  0  0
 17 26  1  0  0  0  0
 18 20  1  0  0  0  0
 18 26  1  0  0  0  0
 19 21  1  6  0  0  0
 19 24  1  0  0  0  0
 22 23  1  0  0  0  0
  1 30  1  0  0  0  0
  2 31  1  0  0  0  0
  3 32  1  0  0  0  0
  4 33  1  0  0  0  0
  5 34  1  0  0  0  0
  6 35  1  0  0  0  0
 10 36  1  0  0  0  0
 11 37  1  0  0  0  0
 14 38  1  0  0  0  0
 14 39  1  0  0  0  0
 15 40  1  0  0  0  0
 15 41  1  0  0  0  0
 16 42  1  0  0  0  0
 16 43  1  0  0  0  0
 17 44  1  0  0  0  0
 17 45  1  0  0  0  0
 18 46  1  0  0  0  0
 18 47  1  0  0  0  0
 19 48  1  0  0  0  0
 21 49  1  0  0  0  0
 21 50  1  0  0  0  0
 21 51  1  0  0  0  0
 24 52  1  0  0  0  0
 25 53  1  0  0  0  0
 26 54  1  0  0  0  0
M  END
> <id>
EN300-6733234

> <smiles>
C[C@@H]1CNC(=O)C2(CNC2)C/C=C/COC3=CN(N=C3C(=O)N1)C=4C=CC=CC4.OC(=O)C(F)(F)F

> <MDLNUMBER>
MFCD31746227

> <IUPAC Name>
(13'R)-13'-methyl-2'-phenyl-5',8',10',11',12',13',14',15'-octahydro-2'H-spiro[azetidine-3,9'-pyrazolo[4,3-b]1-oxa-5,8-diazacyclotetradecane]-10',15'-dione; trifluoroacetic acid

> <CAS>
2648868-65-7

> <Purity>
85

> <URL>
https://www.enaminestore.com/catalog/EN300-6733234

> <Saltdate>
OC(=O)C(F)(F)F

> <ROCS_ShapeQuery>
_x0404_0B

> <ROCS_TanimotoCombo>
0.436 

> <ROCS_ShapeTanimoto>
0.362 

> <ROCS_ColorTanimoto>
0.073 

> <ROCS_RefTversky>
0.330 

> <ROCS_RefColorTversky>
0.082 

> <ROCS_RefTverskyCombo>
0.411 

> <ROCS_FitTversky>
1.379 

> <ROCS_FitColorTversky>
0.415 

> <ROCS_FitTverskyCombo>
1.794 

> <ROCS_ColorScore>
-5.905

> <ROCS_Overlap>
2204.924

> <ROCS_Rank>
306                 

$$$$
untitled-dbase-174686_636
  -OEChem-08222312023D

 61 64  0     0  0  0  0  0  0999 V2000
   -8.6656    5.2479  -16.0767 B   0  0  0  0  0  0  0  0  0  0  0  0
   -8.8304    7.2371  -14.4569 C   0  0  0  0  0  0  0  0  0  0  0  0
   -8.8953    7.7876  -13.1781 C   0  0  0  0  0  0  0  0  0  0  0  0
   -8.7087    4.9974  -13.5207 C   0  0  0  0  0  0  0  0  0  0  0  0
   -8.7376    5.8503  -14.6282 C   0  0  0  0  0  0  0  0  0  0  0  0
   -8.7727    5.5291  -12.2342 C   0  0  0  0  0  0  0  0  0  0  0  0
   -8.8651    6.9218  -12.0938 C   0  0  0  0  0  0  0  0  0  0  0  0
   -8.8653    6.1238   -9.8932 C   0  0  0  0  0  0  0  0  0  0  0  0
   -8.6191    1.7582   -9.3218 C   0  0  0  0  0  0  0  0  0  0  0  0
   -9.7721    3.6869  -10.5565 C   0  0  0  0  0  0  0  0  0  0  0  0
   -7.6256    3.8242  -10.5066 C   0  0  0  0  0  0  0  0  0  0  0  0
   -8.7599    4.8205  -10.8394 C   0  0  0  0  0  0  0  0  0  0  0  0
   -7.8251    4.6639  -18.1254 C   0  0  0  0  0  0  0  0  0  0  0  0
   -9.3082    4.1797  -17.9979 C   0  0  0  0  0  0  0  0  0  0  0  0
   -6.7638    3.5484  -17.9935 C   0  0  0  0  0  0  0  0  0  0  0  0
   -7.5178    5.4576  -19.4031 C   0  0  0  0  0  0  0  0  0  0  0  0
   -9.5337    2.7044  -18.3576 C   0  0  0  0  0  0  0  0  0  0  0  0
  -10.3367    5.0222  -18.7855 C   0  0  0  0  0  0  0  0  0  0  0  0
   -8.8879   -0.2460  -10.9824 C   0  0  0  0  0  0  0  0  0  0  0  0
   -6.3899   -0.5084  -10.9988 C   0  0  0  0  0  0  0  0  0  0  0  0
   -7.7121   -1.2494   -8.9961 C   0  0  0  0  0  0  0  0  0  0  0  0
   -9.0162    8.6181  -10.2574 C   0  0  0  0  0  0  0  0  0  0  0  0
   -7.6176   -0.2332  -10.1333 C   0  0  0  0  0  0  0  0  0  0  0  0
   -8.9180    7.2531  -10.7249 N   0  0  0  0  0  0  0  0  0  0  0  0
   -8.6583    2.9325  -10.0211 N   0  0  0  0  0  0  0  0  0  0  0  0
   -8.8956    6.1475   -8.6650 O   0  0  0  0  0  0  0  0  0  0  0  0
   -9.5106    1.3713   -8.5714 O   0  0  0  0  0  0  0  0  0  0  0  0
   -7.6498    5.5594  -16.9804 O   0  0  0  0  0  0  0  0  0  0  0  0
   -9.6115    4.3527  -16.5761 O   0  0  0  0  0  0  0  0  0  0  0  0
   -7.4618    1.0723   -9.5663 O   0  0  0  0  0  0  0  0  0  0  0  0
   -8.8536    7.9124  -15.3107 H   0  0  0  0  0  0  0  0  0  0  0  0
   -8.9667    8.8624  -13.0527 H   0  0  0  0  0  0  0  0  0  0  0  0
   -8.6371    3.9178  -13.6368 H   0  0  0  0  0  0  0  0  0  0  0  0
  -10.5440    3.9132   -9.8161 H   0  0  0  0  0  0  0  0  0  0  0  0
  -10.2225    3.2100  -11.4318 H   0  0  0  0  0  0  0  0  0  0  0  0
   -7.0786    3.4122  -11.3595 H   0  0  0  0  0  0  0  0  0  0  0  0
   -6.9248    4.1481   -9.7325 H   0  0  0  0  0  0  0  0  0  0  0  0
   -5.7791    3.9868  -18.0960 H   0  0  0  0  0  0  0  0  0  0  0  0
   -6.9262    2.8155  -18.7738 H   0  0  0  0  0  0  0  0  0  0  0  0
   -6.8629    3.0829  -17.0209 H   0  0  0  0  0  0  0  0  0  0  0  0
   -6.4717    5.7498  -19.4039 H   0  0  0  0  0  0  0  0  0  0  0  0
   -8.1425    6.3454  -19.4357 H   0  0  0  0  0  0  0  0  0  0  0  0
   -7.7222    4.8377  -20.2712 H   0  0  0  0  0  0  0  0  0  0  0  0
  -10.5856    2.4607  -18.2402 H   0  0  0  0  0  0  0  0  0  0  0  0
   -8.9403    2.0772  -17.6988 H   0  0  0  0  0  0  0  0  0  0  0  0
   -9.2345    2.5340  -19.3878 H   0  0  0  0  0  0  0  0  0  0  0  0
  -11.3239    4.6055  -18.6305 H   0  0  0  0  0  0  0  0  0  0  0  0
  -10.0827    4.9923  -19.8376 H   0  0  0  0  0  0  0  0  0  0  0  0
  -10.3041    6.0426  -18.4249 H   0  0  0  0  0  0  0  0  0  0  0  0
   -9.7714   -0.0488  -10.3648 H   0  0  0  0  0  0  0  0  0  0  0  0
   -8.8473    0.5026  -11.7803 H   0  0  0  0  0  0  0  0  0  0  0  0
   -9.0432   -1.2303  -11.4389 H   0  0  0  0  0  0  0  0  0  0  0  0
   -5.4761   -0.5002  -10.3937 H   0  0  0  0  0  0  0  0  0  0  0  0
   -6.2645    0.2722  -11.7578 H   0  0  0  0  0  0  0  0  0  0  0  0
   -6.4615   -1.4763  -11.5054 H   0  0  0  0  0  0  0  0  0  0  0  0
   -6.8011   -1.2404   -8.3869 H   0  0  0  0  0  0  0  0  0  0  0  0
   -8.5667   -1.0454   -8.3429 H   0  0  0  0  0  0  0  0  0  0  0  0
   -7.8104   -2.2673   -9.3904 H   0  0  0  0  0  0  0  0  0  0  0  0
  -10.0756    8.8984  -10.1626 H   0  0  0  0  0  0  0  0  0  0  0  0
   -8.5247    8.7060   -9.2772 H   0  0  0  0  0  0  0  0  0  0  0  0
   -8.5226    9.2883  -10.9765 H   0  0  0  0  0  0  0  0  0  0  0  0
  1  5  1  0  0  0  0
  1 28  1  0  0  0  0
  1 29  1  0  0  0  0
  2  3  1  0  0  0  0
  2  5  2  0  0  0  0
  3  7  2  0  0  0  0
  4  5  1  0  0  0  0
  4  6  2  0  0  0  0
  6  7  1  0  0  0  0
  6 12  1  0  0  0  0
  7 24  1  0  0  0  0
  8 12  1  0  0  0  0
  8 24  1  0  0  0  0
  8 26  2  0  0  0  0
  9 25  1  0  0  0  0
  9 27  2  0  0  0  0
  9 30  1  0  0  0  0
 10 12  1  0  0  0  0
 10 25  1  0  0  0  0
 11 12  1  0  0  0  0
 11 25  1  0  0  0  0
 13 14  1  0  0  0  0
 13 15  1  0  0  0  0
 13 16  1  0  0  0  0
 13 28  1  0  0  0  0
 14 17  1  0  0  0  0
 14 18  1  0  0  0  0
 14 29  1  0  0  0  0
 19 23  1  0  0  0  0
 20 23  1  0  0  0  0
 21 23  1  0  0  0  0
 22 24  1  0  0  0  0
 23 30  1  0  0  0  0
  2 31  1  0  0  0  0
  3 32  1  0  0  0  0
  4 33  1  0  0  0  0
 10 34  1  0  0  0  0
 10 35  1  0  0  0  0
 11 36  1  0  0  0  0
 11 37  1  0  0  0  0
 15 38  1  0  0  0  0
 15 39  1  0  0  0  0
 15 40  1  0  0  0  0
 16 41  1  0  0  0  0
 16 42  1  0  0  0  0
 16 43  1  0  0  0  0
 17 44  1  0  0  0  0
 17 45  1  0  0  0  0
 17 46  1  0  0  0  0
 18 47  1  0  0  0  0
 18 48  1  0  0  0  0
 18 49  1  0  0  0  0
 19 50  1  0  0  0  0
 19 51  1  0  0  0  0
 19 52  1  0  0  0  0
 20 53  1  0  0  0  0
 20 54  1  0  0  0  0
 20 55  1  0  0  0  0
 21 56  1  0  0  0  0
 21 57  1  0  0  0  0
 21 58  1  0  0  0  0
 22 59  1  0  0  0  0
 22 60  1  0  0  0  0
 22 61  1  0  0  0  0
M  END
> <id>
EN300-39912999

> <smiles>
CN1C(=O)C2(CN(C2)C(=O)OC(C)(C)C)C=3C=C(C=CC13)B4OC(C)(C)C(C)(C)O4

> <IUPAC Name>
tert-butyl 1'-methyl-2'-oxo-5'-(4,4,5,5-tetramethyl-1,3,2-dioxaborolan-2-yl)-1',2'-dihydrospiro[azetidine-3,3'-indole]-1-carboxylate

> <URL>
https://www.enaminestore.com/catalog/EN300-39912999

> <ROCS_ShapeQuery>
_x0404_0B

> <ROCS_TanimotoCombo>
0.435 

> <ROCS_ShapeTanimoto>
0.385 

> <ROCS_ColorTanimoto>
0.051 

> <ROCS_RefTversky>
0.346 

> <ROCS_RefColorTversky>
0.057 

> <ROCS_RefTverskyCombo>
0.402 

> <ROCS_FitTversky>
1.411 

> <ROCS_FitColorTversky>
0.331 

> <ROCS_FitTverskyCombo>
1.741 

> <ROCS_ColorScore>
-4.083

> <ROCS_Overlap>
2315.850

> <ROCS_Rank>
307                 

$$$$
untitled-dbase-124188_1
  -OEChem-08222312023D

 35 38  0     0  0  0  0  0  0999 V2000
   -7.3256    5.9459  -15.2705 C   0  0  0  0  0  0  0  0  0  0  0  0
   -7.2136    5.8618  -16.6583 C   0  0  0  0  0  0  0  0  0  0  0  0
   -8.8670    5.6082   -9.0689 C   0  0  0  0  0  0  0  0  0  0  0  0
   -8.4942    6.8103  -12.5586 C   0  0  0  0  0  0  0  0  0  0  0  0
   -9.0149    3.2130  -10.5364 C   0  0  0  0  0  0  0  0  0  0  0  0
   -9.4171    4.8781  -16.7765 C   0  0  0  0  0  0  0  0  0  0  0  0
   -8.7666    5.6212  -10.4720 C   0  0  0  0  0  0  0  0  0  0  0  0
   -8.4833    5.4961  -14.6357 C   0  0  0  0  0  0  0  0  0  0  0  0
   -8.5910    6.8199  -11.1744 C   0  0  0  0  0  0  0  0  0  0  0  0
   -8.8405    4.4146  -11.2202 C   0  0  0  0  0  0  0  0  0  0  0  0
   -9.0386    4.3942   -8.4428 C   0  0  0  0  0  0  0  0  0  0  0  0
   -9.1105    3.2273   -9.1584 C   0  0  0  0  0  0  0  0  0  0  0  0
   -8.2594    5.3279  -17.4113 C   0  0  0  0  0  0  0  0  0  0  0  0
   -9.5291    4.9622  -15.3887 C   0  0  0  0  0  0  0  0  0  0  0  0
   -8.5773    5.5895  -13.1980 C   0  0  0  0  0  0  0  0  0  0  0  0
   -9.3078    2.7576   -7.0563 C   0  0  0  0  0  0  0  0  0  0  0  0
   -8.5034    8.1447  -10.4835 C   0  0  0  0  0  0  0  0  0  0  0  0
   -8.7465    4.4075  -12.5621 N   0  0  0  0  0  0  0  0  0  0  0  0
   -9.1543    4.1909   -7.1031 O   0  0  0  0  0  0  0  0  0  0  0  0
   -9.2810    2.1391   -8.3589 O   0  0  0  0  0  0  0  0  0  0  0  0
   -8.1505    5.2463  -18.7656 O   0  0  0  0  0  0  0  0  0  0  0  0
  -10.6715    4.5145  -14.7934 O   0  0  0  0  0  0  0  0  0  0  0  0
   -6.5001    6.3630  -14.6985 H   0  0  0  0  0  0  0  0  0  0  0  0
   -6.3090    6.2137  -17.1469 H   0  0  0  0  0  0  0  0  0  0  0  0
   -8.8130    6.5149   -8.4749 H   0  0  0  0  0  0  0  0  0  0  0  0
   -8.3583    7.7327  -13.1150 H   0  0  0  0  0  0  0  0  0  0  0  0
   -9.0760    2.2726  -11.0770 H   0  0  0  0  0  0  0  0  0  0  0  0
  -10.2314    4.4608  -17.3635 H   0  0  0  0  0  0  0  0  0  0  0  0
   -8.4965    2.3370   -6.4510 H   0  0  0  0  0  0  0  0  0  0  0  0
  -10.2643    2.5224   -6.5755 H   0  0  0  0  0  0  0  0  0  0  0  0
   -9.5017    8.5831  -10.3817 H   0  0  0  0  0  0  0  0  0  0  0  0
   -8.0615    8.0396   -9.4862 H   0  0  0  0  0  0  0  0  0  0  0  0
   -7.8689    8.8397  -11.0451 H   0  0  0  0  0  0  0  0  0  0  0  0
   -7.2934    5.5970  -19.0559 H   0  0  0  0  0  0  0  0  0  0  0  0
  -10.6151    4.6319  -13.8326 H   0  0  0  0  0  0  0  0  0  0  0  0
  1  2  1  0  0  0  0
  1  8  2  0  0  0  0
  2 13  2  0  0  0  0
  3  7  2  0  0  0  0
  3 11  1  0  0  0  0
  4  9  2  0  0  0  0
  4 15  1  0  0  0  0
  5 10  2  0  0  0  0
  5 12  1  0  0  0  0
  6 13  1  0  0  0  0
  6 14  2  0  0  0  0
  7  9  1  0  0  0  0
  7 10  1  0  0  0  0
  8 14  1  0  0  0  0
  8 15  1  0  0  0  0
  9 17  1  0  0  0  0
 10 18  1  0  0  0  0
 11 12  2  0  0  0  0
 11 19  1  0  0  0  0
 12 20  1  0  0  0  0
 13 21  1  0  0  0  0
 14 22  1  0  0  0  0
 15 18  2  0  0  0  0
 16 19  1  0  0  0  0
 16 20  1  0  0  0  0
  1 23  1  0  0  0  0
  2 24  1  0  0  0  0
  3 25  1  0  0  0  0
  4 26  1  0  0  0  0
  5 27  1  0  0  0  0
  6 28  1  0  0  0  0
 16 29  1  0  0  0  0
 16 30  1  0  0  0  0
 17 31  1  0  0  0  0
 17 32  1  0  0  0  0
 17 33  1  0  0  0  0
 21 34  1  0  0  0  0
 22 35  1  0  0  0  0
M  END
> <id>
EN300-6498668

> <smiles>
Cl.CC=1C=C(N=C2C=C3OCOC3=CC12)C=4C=CC(O)=CC4O

> <MDLNUMBER>
MFCD31794796

> <IUPAC Name>
4-{8-methyl-2H-[1,3]dioxolo[4,5-g]quinolin-6-yl}benzene-1,3-diol hydrochloride

> <CAS>
1797668-19-9

> <Purity>
95

> <URL>
https://www.enaminestore.com/catalog/EN300-6498668

> <Saltdate>
Cl

> <ROCS_ShapeQuery>
_x0404_0B

> <ROCS_TanimotoCombo>
0.435 

> <ROCS_ShapeTanimoto>
0.374 

> <ROCS_ColorTanimoto>
0.062 

> <ROCS_RefTversky>
0.327 

> <ROCS_RefColorTversky>
0.070 

> <ROCS_RefTverskyCombo>
0.396 

> <ROCS_FitTversky>
1.622 

> <ROCS_FitColorTversky>
0.354 

> <ROCS_FitTverskyCombo>
1.976 

> <ROCS_ColorScore>
-5.043

> <ROCS_Overlap>
2182.195

> <ROCS_Rank>
308                 

$$$$
untitled-dbase-6866_383
  -OEChem-08222312023D

 46 47  0     1  0  0  0  0  0999 V2000
   -9.6686    4.5298  -17.1663 C   0  0  0  0  0  0  0  0  0  0  0  0
   -8.8216    5.0731  -18.1322 C   0  0  0  0  0  0  0  0  0  0  0  0
   -9.2218    4.3764  -15.8538 C   0  0  0  0  0  0  0  0  0  0  0  0
   -7.5279    5.4628  -17.7859 C   0  0  0  0  0  0  0  0  0  0  0  0
   -7.9281    4.7661  -15.5074 C   0  0  0  0  0  0  0  0  0  0  0  0
   -7.0811    5.3093  -16.4734 C   0  0  0  0  0  0  0  0  0  0  0  0
   -8.8514    4.5876   -9.9421 C   0  0  0  0  0  0  0  0  0  0  0  0
   -7.7116    5.8521  -13.2129 C   0  0  0  0  0  0  0  0  0  0  0  0
   -8.8140    5.6688  -12.1738 C   0  0  0  0  0  0  0  0  0  0  0  0
   -7.9677    3.3271  -11.9205 C   0  0  0  0  0  0  0  0  0  0  0  0
   -7.4626    4.5901  -14.0677 C   0  0  1  0  0  0  0  0  0  0  0  0
   -8.0845    3.3235  -13.4426 C   0  0  1  0  0  0  0  0  0  0  0  0
  -10.6925    4.2521   -7.7782 C   0  0  0  0  0  0  0  0  0  0  0  0
   -9.8293    1.8967   -7.6512 C   0  0  0  0  0  0  0  0  0  0  0  0
   -8.2715    3.8235   -7.2402 C   0  0  0  0  0  0  0  0  0  0  0  0
   -5.6916    5.7331  -16.1264 C   0  0  0  0  0  0  0  0  0  0  0  0
   -9.4917    3.3392   -8.0220 C   0  0  0  0  0  0  0  0  0  0  0  0
   -8.5534    4.5201  -11.3070 N   0  0  0  0  0  0  0  0  0  0  0  0
   -8.8229    5.6199   -9.2751 O   0  0  0  0  0  0  0  0  0  0  0  0
   -7.4312    2.1616  -13.9533 O   0  0  0  0  0  0  0  0  0  0  0  0
   -9.1772    3.3633   -9.4190 O   0  0  0  0  0  0  0  0  0  0  0  0
   -4.9964    6.2426  -17.1851 F   0  0  0  0  0  0  0  0  0  0  0  0
   -5.6415    6.7018  -15.1659 F   0  0  0  0  0  0  0  0  0  0  0  0
   -4.9343    4.7034  -15.6503 F   0  0  0  0  0  0  0  0  0  0  0  0
  -10.6754    4.2258  -17.4365 H   0  0  0  0  0  0  0  0  0  0  0  0
   -9.1701    5.1920  -19.1541 H   0  0  0  0  0  0  0  0  0  0  0  0
   -9.8890    3.9506  -15.1089 H   0  0  0  0  0  0  0  0  0  0  0  0
   -6.8756    5.8855  -18.5456 H   0  0  0  0  0  0  0  0  0  0  0  0
   -7.9737    6.7046  -13.8667 H   0  0  0  0  0  0  0  0  0  0  0  0
   -6.7768    6.1477  -12.7043 H   0  0  0  0  0  0  0  0  0  0  0  0
   -8.8828    6.5557  -11.5273 H   0  0  0  0  0  0  0  0  0  0  0  0
   -9.7845    5.5627  -12.6767 H   0  0  0  0  0  0  0  0  0  0  0  0
   -8.4105    2.4031  -11.5148 H   0  0  0  0  0  0  0  0  0  0  0  0
   -6.9068    3.2916  -11.6146 H   0  0  0  0  0  0  0  0  0  0  0  0
   -6.3501    4.4198  -14.1440 H   0  0  0  0  0  0  0  0  0  0  0  0
   -9.1554    3.2482  -13.7242 H   0  0  0  0  0  0  0  0  0  0  0  0
  -10.4543    5.2885   -8.0431 H   0  0  0  0  0  0  0  0  0  0  0  0
  -11.5644    3.9360   -8.3602 H   0  0  0  0  0  0  0  0  0  0  0  0
  -10.9688    4.2599   -6.7176 H   0  0  0  0  0  0  0  0  0  0  0  0
   -8.9705    1.2382   -7.8246 H   0  0  0  0  0  0  0  0  0  0  0  0
  -10.6435    1.5133   -8.2767 H   0  0  0  0  0  0  0  0  0  0  0  0
  -10.1274    1.8086   -6.6015 H   0  0  0  0  0  0  0  0  0  0  0  0
   -7.4100    3.1689   -7.4150 H   0  0  0  0  0  0  0  0  0  0  0  0
   -7.9922    4.8444   -7.5203 H   0  0  0  0  0  0  0  0  0  0  0  0
   -8.4648    3.7989   -6.1617 H   0  0  0  0  0  0  0  0  0  0  0  0
   -7.5266    2.1952  -14.9171 H   0  0  0  0  0  0  0  0  0  0  0  0
  1  2  2  0  0  0  0
  1  3  1  0  0  0  0
  2  4  1  0  0  0  0
  3  5  2  0  0  0  0
  4  6  2  0  0  0  0
  5  6  1  0  0  0  0
  5 11  1  0  0  0  0
  6 16  1  0  0  0  0
  7 18  1  0  0  0  0
  7 19  2  0  0  0  0
  7 21  1  0  0  0  0
  8  9  1  0  0  0  0
  8 11  1  0  0  0  0
  9 18  1  0  0  0  0
 10 12  1  0  0  0  0
 10 18  1  0  0  0  0
 11 12  1  0  0  0  0
 12 20  1  0  0  0  0
 13 17  1  0  0  0  0
 14 17  1  0  0  0  0
 15 17  1  0  0  0  0
 16 22  1  0  0  0  0
 16 23  1  0  0  0  0
 16 24  1  0  0  0  0
 17 21  1  0  0  0  0
  1 25  1  0  0  0  0
  2 26  1  0  0  0  0
  3 27  1  0  0  0  0
  4 28  1  0  0  0  0
  8 29  1  0  0  0  0
  8 30  1  0  0  0  0
  9 31  1  0  0  0  0
  9 32  1  0  0  0  0
 10 33  1  0  0  0  0
 10 34  1  0  0  0  0
 11 35  1  0  0  0  0
 12 36  1  0  0  0  0
 13 37  1  0  0  0  0
 13 38  1  0  0  0  0
 13 39  1  0  0  0  0
 14 40  1  0  0  0  0
 14 41  1  0  0  0  0
 14 42  1  0  0  0  0
 15 43  1  0  0  0  0
 15 44  1  0  0  0  0
 15 45  1  0  0  0  0
 20 46  1  0  0  0  0
M  END
> <id>
EN300-94575

> <smiles>
CC(C)(C)OC(=O)N1CCC(C(O)C1)C=2C=CC=CC2C(F)(F)F

> <MDLNUMBER>
MFCD20502213

> <IUPAC Name>
tert-butyl 3-hydroxy-4-[2-(trifluoromethyl)phenyl]piperidine-1-carboxylate

> <CAS>
1354953-27-7

> <URL>
https://www.enaminestore.com/catalog/EN300-94575

> <ROCS_ShapeQuery>
_x0404_0B

> <ROCS_TanimotoCombo>
0.435 

> <ROCS_ShapeTanimoto>
0.345 

> <ROCS_ColorTanimoto>
0.090 

> <ROCS_RefTversky>
0.309 

> <ROCS_RefColorTversky>
0.094 

> <ROCS_RefTverskyCombo>
0.403 

> <ROCS_FitTversky>
1.510 

> <ROCS_FitColorTversky>
0.713 

> <ROCS_FitTverskyCombo>
2.223 

> <ROCS_ColorScore>
-6.762

> <ROCS_Overlap>
2063.874

> <ROCS_Rank>
309                 

$$$$
untitled-dbase-94746_118
  -OEChem-08222312023D

 43 46  0     1  0  0  0  0  0999 V2000
   -9.1194    5.6499  -11.7676 C   0  0  0  0  0  0  0  0  0  0  0  0
   -8.4702    5.3070  -12.9213 C   0  0  0  0  0  0  0  0  0  0  0  0
   -7.7915    4.1141  -12.6430 C   0  0  0  0  0  0  0  0  0  0  0  0
   -8.6130    3.6192   -7.3749 C   0  0  0  0  0  0  0  0  0  0  0  0
   -9.3182    2.5144   -8.1430 C   0  0  0  0  0  0  0  0  0  0  0  0
   -8.1544    4.5683   -8.4722 C   0  0  0  0  0  0  0  0  0  0  0  0
  -10.1033    3.2605   -9.2160 C   0  0  0  0  0  0  0  0  0  0  0  0
   -9.1466    4.4616  -15.8168 C   0  0  0  0  0  0  0  0  0  0  0  0
   -7.5347    6.3014  -16.2550 C   0  0  0  0  0  0  0  0  0  0  0  0
   -6.7206    4.3552  -14.8393 C   0  0  0  0  0  0  0  0  0  0  0  0
   -8.8315    3.8989  -17.2016 C   0  0  0  0  0  0  0  0  0  0  0  0
   -7.2734    5.6973  -17.6353 C   0  0  0  0  0  0  0  0  0  0  0  0
   -6.9214    3.4317  -13.6196 C   0  0  2  0  0  0  0  0  0  0  0  0
   -9.2890    4.5361   -9.5102 C   0  0  0  0  0  0  0  0  0  0  0  0
   -7.9623    5.2451  -15.2062 C   0  0  0  0  0  0  0  0  0  0  0  0
   -8.0014    3.6954  -11.3924 N   0  0  0  0  0  0  0  0  0  0  0  0
   -8.8157    4.6470  -10.8874 N   0  0  0  0  0  0  0  0  0  0  0  0
   -8.4327    4.9553  -18.1343 N   0  0  0  0  0  0  0  0  0  0  0  0
   -8.4602    6.0076  -14.0724 O   0  0  0  0  0  0  0  0  0  0  0  0
   -7.4307    2.1656  -14.0275 O   0  0  0  0  0  0  0  0  0  0  0  0
   -9.7443    6.4893  -11.4958 H   0  0  0  0  0  0  0  0  0  0  0  0
   -9.2677    4.1061   -6.6497 H   0  0  0  0  0  0  0  0  0  0  0  0
   -7.7465    3.2136   -6.8427 H   0  0  0  0  0  0  0  0  0  0  0  0
   -8.6172    1.7903   -8.5728 H   0  0  0  0  0  0  0  0  0  0  0  0
  -10.0051    1.9688   -7.4819 H   0  0  0  0  0  0  0  0  0  0  0  0
   -8.0724    5.5796   -8.0627 H   0  0  0  0  0  0  0  0  0  0  0  0
   -7.1786    4.2854   -8.8709 H   0  0  0  0  0  0  0  0  0  0  0  0
  -10.1966    2.6306  -10.1134 H   0  0  0  0  0  0  0  0  0  0  0  0
  -11.1212    3.4981   -8.8803 H   0  0  0  0  0  0  0  0  0  0  0  0
  -10.0218    5.1209  -15.9052 H   0  0  0  0  0  0  0  0  0  0  0  0
   -9.4332    3.6358  -15.1489 H   0  0  0  0  0  0  0  0  0  0  0  0
   -6.6267    6.8189  -15.9083 H   0  0  0  0  0  0  0  0  0  0  0  0
   -8.3100    7.0724  -16.3690 H   0  0  0  0  0  0  0  0  0  0  0  0
   -5.8250    4.9832  -14.6809 H   0  0  0  0  0  0  0  0  0  0  0  0
   -6.4712    3.7237  -15.7141 H   0  0  0  0  0  0  0  0  0  0  0  0
   -8.0135    3.1729  -17.1222 H   0  0  0  0  0  0  0  0  0  0  0  0
   -9.6919    3.3507  -17.6060 H   0  0  0  0  0  0  0  0  0  0  0  0
   -6.9921    6.4780  -18.3548 H   0  0  0  0  0  0  0  0  0  0  0  0
   -6.4181    5.0129  -17.5757 H   0  0  0  0  0  0  0  0  0  0  0  0
   -5.9343    3.2399  -13.1350 H   0  0  0  0  0  0  0  0  0  0  0  0
   -9.9352    5.4420   -9.3664 H   0  0  0  0  0  0  0  0  0  0  0  0
   -8.1923    4.5308  -19.0296 H   0  0  0  0  0  0  0  0  0  0  0  0
   -8.2968    2.3315  -14.4322 H   0  0  0  0  0  0  0  0  0  0  0  0
  1  2  2  0  0  0  0
  1 17  1  0  0  0  0
  2  3  1  0  0  0  0
  2 19  1  0  0  0  0
  3 13  1  0  0  0  0
  3 16  2  0  0  0  0
  4  5  1  0  0  0  0
  4  6  1  0  0  0  0
  5  7  1  0  0  0  0
  6 14  1  0  0  0  0
  7 14  1  0  0  0  0
  8 11  1  0  0  0  0
  8 15  1  0  0  0  0
  9 12  1  0  0  0  0
  9 15  1  0  0  0  0
 10 13  1  0  0  0  0
 10 15  1  0  0  0  0
 11 18  1  0  0  0  0
 12 18  1  0  0  0  0
 13 20  1  0  0  0  0
 14 17  1  0  0  0  0
 15 19  1  0  0  0  0
 16 17  1  0  0  0  0
  1 21  1  0  0  0  0
  4 22  1  0  0  0  0
  4 23  1  0  0  0  0
  5 24  1  0  0  0  0
  5 25  1  0  0  0  0
  6 26  1  0  0  0  0
  6 27  1  0  0  0  0
  7 28  1  0  0  0  0
  7 29  1  0  0  0  0
  8 30  1  0  0  0  0
  8 31  1  0  0  0  0
  9 32  1  0  0  0  0
  9 33  1  0  0  0  0
 10 34  1  0  0  0  0
 10 35  1  0  0  0  0
 11 36  1  0  0  0  0
 11 37  1  0  0  0  0
 12 38  1  0  0  0  0
 12 39  1  0  0  0  0
 13 40  1  0  0  0  0
 14 41  1  0  0  0  0
 18 42  1  0  0  0  0
 20 43  1  0  0  0  0
M  END
> <id>
EN300-6504251

> <smiles>
OC1CC2(CCNCC2)OC3=CN(N=C13)C4CCCC4

> <MDLNUMBER>
MFCD32203466

> <IUPAC Name>
2'-cyclopentyl-6',7'-dihydro-2'H-spiro[piperidine-4,5'-pyrano[3,2-c]pyrazole]-7'-ol

> <CAS>
2378507-28-7

> <Purity>
91

> <URL>
https://www.enaminestore.com/catalog/EN300-6504251

> <ROCS_ShapeQuery>
_x0404_0B

> <ROCS_TanimotoCombo>
0.435 

> <ROCS_ShapeTanimoto>
0.317 

> <ROCS_ColorTanimoto>
0.118 

> <ROCS_RefTversky>
0.285 

> <ROCS_RefColorTversky>
0.125 

> <ROCS_RefTverskyCombo>
0.410 

> <ROCS_FitTversky>
1.562 

> <ROCS_FitColorTversky>
0.679 

> <ROCS_FitTverskyCombo>
2.242 

> <ROCS_ColorScore>
-9.036

> <ROCS_Overlap>
1900.139

> <ROCS_Rank>
310                 

$$$$
untitled-dbase-152579_20
  -OEChem-08222312023D

 53 55  0     0  0  0  0  0  0999 V2000
   -8.9808    3.9255   -9.1001 B   0  0  0  0  0  0  0  0  0  0  0  0
   -8.8104    7.1211  -11.2027 C   0  0  0  0  0  0  0  0  0  0  0  0
   -8.8897    6.2240  -10.1279 C   0  0  0  0  0  0  0  0  0  0  0  0
   -8.7297    6.6559  -12.5188 C   0  0  0  0  0  0  0  0  0  0  0  0
   -8.8894    4.8476  -10.3544 C   0  0  0  0  0  0  0  0  0  0  0  0
   -8.8090    4.3944  -11.6621 C   0  0  0  0  0  0  0  0  0  0  0  0
   -8.7300    5.2859  -12.7340 C   0  0  0  0  0  0  0  0  0  0  0  0
   -8.5707    5.1136  -15.2196 C   0  0  0  0  0  0  0  0  0  0  0  0
   -8.7944    2.9730  -12.1245 C   0  0  0  0  0  0  0  0  0  0  0  0
   -8.6919    3.1281  -13.6457 C   0  0  0  0  0  0  0  0  0  0  0  0
   -8.9358    3.2671   -6.9143 C   0  0  0  0  0  0  0  0  0  0  0  0
   -9.2789    2.0477   -7.8360 C   0  0  0  0  0  0  0  0  0  0  0  0
   -9.8959    3.4672   -5.7331 C   0  0  0  0  0  0  0  0  0  0  0  0
   -7.4934    3.2757   -6.3594 C   0  0  0  0  0  0  0  0  0  0  0  0
  -10.7634    1.6179   -7.8184 C   0  0  0  0  0  0  0  0  0  0  0  0
   -8.4240    0.7969   -7.5880 C   0  0  0  0  0  0  0  0  0  0  0  0
   -7.6691    4.9176  -17.9300 C   0  0  0  0  0  0  0  0  0  0  0  0
   -9.8220    3.6989  -18.3648 C   0  0  0  0  0  0  0  0  0  0  0  0
   -9.8716    6.0859  -17.5850 C   0  0  0  0  0  0  0  0  0  0  0  0
   -9.1278    4.7535  -17.5056 C   0  0  0  0  0  0  0  0  0  0  0  0
   -8.6586    4.5725  -13.9450 N   0  0  0  0  0  0  0  0  0  0  0  0
   -8.0430    6.1826  -15.5127 O   0  0  0  0  0  0  0  0  0  0  0  0
   -9.0601    4.4253   -7.8027 O   0  0  0  0  0  0  0  0  0  0  0  0
   -8.9900    2.5357   -9.1868 O   0  0  0  0  0  0  0  0  0  0  0  0
   -9.1590    4.2939  -16.1495 O   0  0  0  0  0  0  0  0  0  0  0  0
   -8.8120    8.1906  -11.0096 H   0  0  0  0  0  0  0  0  0  0  0  0
   -8.9504    6.6398   -9.1230 H   0  0  0  0  0  0  0  0  0  0  0  0
   -8.6694    7.3750  -13.3264 H   0  0  0  0  0  0  0  0  0  0  0  0
   -7.9258    2.4336  -11.7337 H   0  0  0  0  0  0  0  0  0  0  0  0
   -9.7190    2.4545  -11.8518 H   0  0  0  0  0  0  0  0  0  0  0  0
   -7.7818    2.6633  -14.0417 H   0  0  0  0  0  0  0  0  0  0  0  0
   -9.5499    2.6792  -14.1592 H   0  0  0  0  0  0  0  0  0  0  0  0
   -9.5746    4.3289   -5.1617 H   0  0  0  0  0  0  0  0  0  0  0  0
   -9.8760    2.5814   -5.1107 H   0  0  0  0  0  0  0  0  0  0  0  0
  -10.8955    3.6285   -6.1168 H   0  0  0  0  0  0  0  0  0  0  0  0
   -7.3517    4.1536   -5.7359 H   0  0  0  0  0  0  0  0  0  0  0  0
   -6.7888    3.2997   -7.1855 H   0  0  0  0  0  0  0  0  0  0  0  0
   -7.3288    2.3799   -5.7677 H   0  0  0  0  0  0  0  0  0  0  0  0
  -10.9021    0.7708   -8.4837 H   0  0  0  0  0  0  0  0  0  0  0  0
  -11.3830    2.4457   -8.1509 H   0  0  0  0  0  0  0  0  0  0  0  0
  -11.0458    1.3361   -6.8082 H   0  0  0  0  0  0  0  0  0  0  0  0
   -8.7372    0.0168   -8.2703 H   0  0  0  0  0  0  0  0  0  0  0  0
   -8.5649    0.4728   -6.5646 H   0  0  0  0  0  0  0  0  0  0  0  0
   -7.3836    1.0435   -7.7590 H   0  0  0  0  0  0  0  0  0  0  0  0
   -7.1673    5.6737  -17.3156 H   0  0  0  0  0  0  0  0  0  0  0  0
   -7.1158    3.9767  -17.8443 H   0  0  0  0  0  0  0  0  0  0  0  0
   -7.6004    5.2664  -18.9667 H   0  0  0  0  0  0  0  0  0  0  0  0
  -10.8689    3.5779  -18.0639 H   0  0  0  0  0  0  0  0  0  0  0  0
   -9.3489    2.7185  -18.2376 H   0  0  0  0  0  0  0  0  0  0  0  0
   -9.7949    3.9617  -19.4273 H   0  0  0  0  0  0  0  0  0  0  0  0
  -10.9179    5.9684  -17.2807 H   0  0  0  0  0  0  0  0  0  0  0  0
   -9.4089    6.8447  -16.9457 H   0  0  0  0  0  0  0  0  0  0  0  0
   -9.8893    6.4615  -18.6144 H   0  0  0  0  0  0  0  0  0  0  0  0
  1  5  1  0  0  0  0
  1 23  1  0  0  0  0
  1 24  1  0  0  0  0
  2  3  1  0  0  0  0
  2  4  2  0  0  0  0
  3  5  2  0  0  0  0
  4  7  1  0  0  0  0
  5  6  1  0  0  0  0
  6  7  2  0  0  0  0
  6  9  1  0  0  0  0
  7 21  1  0  0  0  0
  8 21  1  0  0  0  0
  8 22  2  0  0  0  0
  8 25  1  0  0  0  0
  9 10  1  0  0  0  0
 10 21  1  0  0  0  0
 11 12  1  0  0  0  0
 11 13  1  0  0  0  0
 11 14  1  0  0  0  0
 11 23  1  0  0  0  0
 12 15  1  0  0  0  0
 12 16  1  0  0  0  0
 12 24  1  0  0  0  0
 17 20  1  0  0  0  0
 18 20  1  0  0  0  0
 19 20  1  0  0  0  0
 20 25  1  0  0  0  0
  2 26  1  0  0  0  0
  3 27  1  0  0  0  0
  4 28  1  0  0  0  0
  9 29  1  0  0  0  0
  9 30  1  0  0  0  0
 10 31  1  0  0  0  0
 10 32  1  0  0  0  0
 13 33  1  0  0  0  0
 13 34  1  0  0  0  0
 13 35  1  0  0  0  0
 14 36  1  0  0  0  0
 14 37  1  0  0  0  0
 14 38  1  0  0  0  0
 15 39  1  0  0  0  0
 15 40  1  0  0  0  0
 15 41  1  0  0  0  0
 16 42  1  0  0  0  0
 16 43  1  0  0  0  0
 16 44  1  0  0  0  0
 17 45  1  0  0  0  0
 17 46  1  0  0  0  0
 17 47  1  0  0  0  0
 18 48  1  0  0  0  0
 18 49  1  0  0  0  0
 18 50  1  0  0  0  0
 19 51  1  0  0  0  0
 19 52  1  0  0  0  0
 19 53  1  0  0  0  0
M  END
> <id>
EN300-1228641

> <smiles>
CC(C)(C)OC(=O)N1CCC=2C1=CC=CC2B3OC(C)(C)C(C)(C)O3

> <MDLNUMBER>
MFCD18383572

> <IUPAC Name>
tert-butyl 4-(tetramethyl-1,3,2-dioxaborolan-2-yl)-2,3-dihydro-1H-indole-1-carboxylate

> <CAS>
1235451-62-3

> <URL>
https://www.enaminestore.com/catalog/EN300-1228641

> <ROCS_ShapeQuery>
_x0404_0B

> <ROCS_TanimotoCombo>
0.435 

> <ROCS_ShapeTanimoto>
0.372 

> <ROCS_ColorTanimoto>
0.063 

> <ROCS_RefTversky>
0.329 

> <ROCS_RefColorTversky>
0.068 

> <ROCS_RefTverskyCombo>
0.397 

> <ROCS_FitTversky>
1.546 

> <ROCS_FitColorTversky>
0.472 

> <ROCS_FitTverskyCombo>
2.018 

> <ROCS_ColorScore>
-4.929

> <ROCS_Overlap>
2195.354

> <ROCS_Rank>
311                 

$$$$
untitled-dbase-118795_53
  -OEChem-08222312023D

 39 43  0     1  0  0  0  0  0999 V2000
   -9.4768    4.2037   -9.0629 B   0  0  0  0  0  0  0  0  0  0  0  0
   -7.9613    6.0583  -12.6021 C   0  0  0  0  0  0  0  0  0  0  0  0
   -8.1400    6.6788  -11.3650 C   0  0  0  0  0  0  0  0  0  0  0  0
   -8.7967    3.9512  -11.7102 C   0  0  0  0  0  0  0  0  0  0  0  0
   -8.9733    4.5622  -10.4901 C   0  0  0  0  0  0  0  0  0  0  0  0
   -8.2870    4.7051  -12.7728 C   0  0  0  0  0  0  0  0  0  0  0  0
   -8.6464    5.9274  -10.3096 C   0  0  0  0  0  0  0  0  0  0  0  0
   -8.0887    4.0702  -14.0873 C   0  0  0  0  0  0  0  0  0  0  0  0
   -8.8950    6.4394   -8.9248 C   0  0  0  0  0  0  0  0  0  0  0  0
   -8.7432    5.2146  -19.2257 C   0  0  0  0  0  0  0  0  0  0  0  0
   -7.7923    4.0509  -18.8786 C   0  0  0  0  0  0  0  0  0  0  0  0
   -9.7088    3.9230  -17.4809 C   0  0  0  0  0  0  0  0  0  0  0  0
   -9.0470    6.0472  -15.3931 C   0  0  0  0  0  0  0  0  0  0  0  0
   -9.5686    5.3750  -17.9336 C   0  0  1  0  0  0  0  0  0  0  0  0
   -8.1970    3.7024  -17.4320 C   0  0  2  0  0  0  0  0  0  0  0  0
   -8.6361    6.0041  -16.8761 C   0  0  2  0  0  0  0  0  0  0  0  0
   -7.6772    4.8446  -16.5440 C   0  0  1  0  0  0  0  0  0  0  0  0
   -8.2096    4.8742  -15.1916 N   0  0  0  0  0  0  0  0  0  0  0  0
   -7.8102    2.8742  -14.1208 O   0  0  0  0  0  0  0  0  0  0  0  0
   -9.4174    5.2967   -8.2003 O   0  0  0  0  0  0  0  0  0  0  0  0
   -9.9229    2.9674   -8.7005 O   0  0  0  0  0  0  0  0  0  0  0  0
   -7.5651    6.6371  -13.4331 H   0  0  0  0  0  0  0  0  0  0  0  0
   -7.8864    7.7257  -11.2345 H   0  0  0  0  0  0  0  0  0  0  0  0
   -9.0474    2.9029  -11.8481 H   0  0  0  0  0  0  0  0  0  0  0  0
   -7.9699    6.7739   -8.4418 H   0  0  0  0  0  0  0  0  0  0  0  0
   -9.6439    7.2392   -8.9145 H   0  0  0  0  0  0  0  0  0  0  0  0
   -8.1919    6.1220  -19.4922 H   0  0  0  0  0  0  0  0  0  0  0  0
   -9.3847    4.9371  -20.0694 H   0  0  0  0  0  0  0  0  0  0  0  0
   -7.9710    3.2047  -19.5512 H   0  0  0  0  0  0  0  0  0  0  0  0
   -6.7419    4.3474  -18.9643 H   0  0  0  0  0  0  0  0  0  0  0  0
  -10.2030    3.8101  -16.5120 H   0  0  0  0  0  0  0  0  0  0  0  0
  -10.2154    3.2878  -18.2157 H   0  0  0  0  0  0  0  0  0  0  0  0
   -8.6867    6.9181  -14.8382 H   0  0  0  0  0  0  0  0  0  0  0  0
  -10.1056    5.8771  -15.1825 H   0  0  0  0  0  0  0  0  0  0  0  0
  -10.5048    5.9200  -18.0689 H   0  0  0  0  0  0  0  0  0  0  0  0
   -7.8778    2.7080  -17.1145 H   0  0  0  0  0  0  0  0  0  0  0  0
   -8.1556    6.9312  -17.2102 H   0  0  0  0  0  0  0  0  0  0  0  0
   -6.6077    5.0703  -16.5902 H   0  0  0  0  0  0  0  0  0  0  0  0
   -9.8881    2.3376   -9.4421 H   0  0  0  0  0  0  0  0  0  0  0  0
  1  5  1  0  0  0  0
  1 20  1  0  0  0  0
  1 21  1  0  0  0  0
  2  3  1  0  0  0  0
  2  6  2  0  0  0  0
  3  7  2  0  0  0  0
  4  5  2  0  0  0  0
  4  6  1  0  0  0  0
  5  7  1  0  0  0  0
  6  8  1  0  0  0  0
  7  9  1  0  0  0  0
  8 18  1  0  0  0  0
  8 19  2  0  0  0  0
  9 20  1  0  0  0  0
 10 11  1  0  0  0  0
 10 14  1  0  0  0  0
 11 15  1  0  0  0  0
 12 14  1  0  0  0  0
 12 15  1  0  0  0  0
 13 16  1  0  0  0  0
 13 18  1  0  0  0  0
 14 16  1  0  0  0  0
 15 17  1  0  0  0  0
 16 17  1  0  0  0  0
 17 18  1  0  0  0  0
  2 22  1  0  0  0  0
  3 23  1  0  0  0  0
  4 24  1  0  0  0  0
  9 25  1  0  0  0  0
  9 26  1  0  0  0  0
 10 27  1  0  0  0  0
 10 28  1  0  0  0  0
 11 29  1  0  0  0  0
 11 30  1  0  0  0  0
 12 31  1  0  0  0  0
 12 32  1  0  0  0  0
 13 33  1  0  0  0  0
 13 34  1  0  0  0  0
 14 35  1  0  0  0  0
 15 36  1  0  0  0  0
 16 37  1  0  0  0  0
 17 38  1  0  0  0  0
 21 39  1  0  0  0  0
M  END
> <id>
EN300-7527787

> <smiles>
OB1OCC=2C=CC(=CC12)C(=O)N3CC4C3C5CCC4C5

> <IUPAC Name>
6-{3-azatricyclo[4.2.1.0,2,5]nonane-3-carbonyl}-1,3-dihydro-2,1-benzoxaborol-1-ol

> <URL>
https://www.enaminestore.com/catalog/EN300-7527787

> <ROCS_ShapeQuery>
_x0404_0B

> <ROCS_TanimotoCombo>
0.435 

> <ROCS_ShapeTanimoto>
0.333 

> <ROCS_ColorTanimoto>
0.102 

> <ROCS_RefTversky>
0.298 

> <ROCS_RefColorTversky>
0.115 

> <ROCS_RefTverskyCombo>
0.413 

> <ROCS_FitTversky>
1.548 

> <ROCS_FitColorTversky>
0.472 

> <ROCS_FitTverskyCombo>
2.021 

> <ROCS_ColorScore>
-8.340

> <ROCS_Overlap>
1989.614

> <ROCS_Rank>
312                 

$$$$
untitled-dbase-103364_245
  -OEChem-08222312023D

 46 48  0     1  0  0  0  0  0999 V2000
  -10.0036    5.2737  -16.3182 C   0  0  0  0  0  0  0  0  0  0  0  0
   -9.4330    4.7881  -17.4895 C   0  0  0  0  0  0  0  0  0  0  0  0
   -7.8535    6.0403  -15.6503 C   0  0  0  0  0  0  0  0  0  0  0  0
   -9.2056    5.9130  -15.3759 C   0  0  0  0  0  0  0  0  0  0  0  0
   -8.0707    4.9659  -17.6694 C   0  0  0  0  0  0  0  0  0  0  0  0
   -9.7783    6.4369  -14.1288 C   0  0  0  0  0  0  0  0  0  0  0  0
   -9.2425    3.1179   -9.9225 C   0  0  0  0  0  0  0  0  0  0  0  0
   -7.4133    6.0235  -10.7547 C   0  0  0  0  0  0  0  0  0  0  0  0
   -8.5118    7.0891  -10.9403 C   0  0  0  0  0  0  0  0  0  0  0  0
   -8.2338    4.8921  -12.8267 C   0  0  0  0  0  0  0  0  0  0  0  0
  -10.2226    5.2749  -10.7801 C   0  0  0  0  0  0  0  0  0  0  0  0
   -7.8888    4.6810  -11.3425 C   0  0  2  0  0  0  0  0  0  0  0  0
   -9.7340    6.4566  -11.6338 C   0  0  2  0  0  0  0  0  0  0  0  0
   -8.4627    4.0150   -7.3218 C   0  0  0  0  0  0  0  0  0  0  0  0
  -10.7111    3.1899   -6.5647 C   0  0  0  0  0  0  0  0  0  0  0  0
   -9.0414    1.5734   -7.5171 C   0  0  0  0  0  0  0  0  0  0  0  0
   -9.5792    3.0025   -7.5726 C   0  0  0  0  0  0  0  0  0  0  0  0
   -7.2633    5.5816  -16.7767 N   0  0  0  0  0  0  0  0  0  0  0  0
   -9.2814    5.9238  -12.9340 N   0  0  0  0  0  0  0  0  0  0  0  0
   -9.1308    4.3011  -10.6446 N   0  0  0  0  0  0  0  0  0  0  0  0
  -10.6504    7.2961  -14.2355 O   0  0  0  0  0  0  0  0  0  0  0  0
   -8.6311    2.0841  -10.1825 O   0  0  0  0  0  0  0  0  0  0  0  0
  -10.1208    3.2354   -8.8776 O   0  0  0  0  0  0  0  0  0  0  0  0
   -7.5066    4.5028  -18.7954 F   0  0  0  0  0  0  0  0  0  0  0  0
  -11.0698    5.1491  -16.1499 H   0  0  0  0  0  0  0  0  0  0  0  0
  -10.0359    4.2868  -18.2379 H   0  0  0  0  0  0  0  0  0  0  0  0
   -7.1800    6.5297  -14.9533 H   0  0  0  0  0  0  0  0  0  0  0  0
   -6.4926    6.3506  -11.2521 H   0  0  0  0  0  0  0  0  0  0  0  0
   -7.1752    5.9113   -9.6901 H   0  0  0  0  0  0  0  0  0  0  0  0
   -8.7987    7.4988   -9.9645 H   0  0  0  0  0  0  0  0  0  0  0  0
   -8.1264    7.9269  -11.5336 H   0  0  0  0  0  0  0  0  0  0  0  0
   -7.3579    5.2266  -13.3937 H   0  0  0  0  0  0  0  0  0  0  0  0
   -8.6053    3.9682  -13.2848 H   0  0  0  0  0  0  0  0  0  0  0  0
  -10.5210    5.6012   -9.7773 H   0  0  0  0  0  0  0  0  0  0  0  0
  -11.0804    4.7729  -11.2421 H   0  0  0  0  0  0  0  0  0  0  0  0
   -7.1211    3.9103  -11.2240 H   0  0  0  0  0  0  0  0  0  0  0  0
  -10.5293    7.1957  -11.7711 H   0  0  0  0  0  0  0  0  0  0  0  0
   -7.6483    3.8838   -8.0433 H   0  0  0  0  0  0  0  0  0  0  0  0
   -8.8282    5.0446   -7.3934 H   0  0  0  0  0  0  0  0  0  0  0  0
   -8.0216    3.8727   -6.3286 H   0  0  0  0  0  0  0  0  0  0  0  0
  -11.5144    2.4655   -6.7409 H   0  0  0  0  0  0  0  0  0  0  0  0
  -11.1634    4.1831   -6.6659 H   0  0  0  0  0  0  0  0  0  0  0  0
  -10.3585    3.0729   -5.5348 H   0  0  0  0  0  0  0  0  0  0  0  0
   -9.8421    0.8469   -7.6970 H   0  0  0  0  0  0  0  0  0  0  0  0
   -8.2533    1.4099   -8.2592 H   0  0  0  0  0  0  0  0  0  0  0  0
   -8.6366    1.3477   -6.5238 H   0  0  0  0  0  0  0  0  0  0  0  0
  1  2  1  0  0  0  0
  1  4  2  0  0  0  0
  2  5  2  0  0  0  0
  3  4  1  0  0  0  0
  3 18  2  0  0  0  0
  4  6  1  0  0  0  0
  5 18  1  0  0  0  0
  5 24  1  0  0  0  0
  6 19  1  0  0  0  0
  6 21  2  0  0  0  0
  7 20  1  0  0  0  0
  7 22  2  0  0  0  0
  7 23  1  0  0  0  0
  8  9  1  0  0  0  0
  8 12  1  0  0  0  0
  9 13  1  0  0  0  0
 10 12  1  0  0  0  0
 10 19  1  0  0  0  0
 11 13  1  0  0  0  0
 11 20  1  0  0  0  0
 12 20  1  0  0  0  0
 13 19  1  0  0  0  0
 14 17  1  0  0  0  0
 15 17  1  0  0  0  0
 16 17  1  0  0  0  0
 17 23  1  0  0  0  0
  1 25  1  0  0  0  0
  2 26  1  0  0  0  0
  3 27  1  0  0  0  0
  8 28  1  0  0  0  0
  8 29  1  0  0  0  0
  9 30  1  0  0  0  0
  9 31  1  0  0  0  0
 10 32  1  0  0  0  0
 10 33  1  0  0  0  0
 11 34  1  0  0  0  0
 11 35  1  0  0  0  0
 12 36  1  0  0  0  0
 13 37  1  0  0  0  0
 14 38  1  0  0  0  0
 14 39  1  0  0  0  0
 14 40  1  0  0  0  0
 15 41  1  0  0  0  0
 15 42  1  0  0  0  0
 15 43  1  0  0  0  0
 16 44  1  0  0  0  0
 16 45  1  0  0  0  0
 16 46  1  0  0  0  0
M  END
> <id>
EN300-6678567

> <smiles>
CC(C)(C)OC(=O)N1CC2CCC1CN2C(=O)C=3C=CC(F)=NC3

> <IUPAC Name>
tert-butyl 5-(6-fluoropyridine-3-carbonyl)-2,5-diazabicyclo[2.2.2]octane-2-carboxylate

> <CAS>
2094517-91-4

> <URL>
https://www.enaminestore.com/catalog/EN300-6678567

> <ROCS_ShapeQuery>
_x0404_0B

> <ROCS_TanimotoCombo>
0.435 

> <ROCS_ShapeTanimoto>
0.360 

> <ROCS_ColorTanimoto>
0.075 

> <ROCS_RefTversky>
0.320 

> <ROCS_RefColorTversky>
0.083 

> <ROCS_RefTverskyCombo>
0.403 

> <ROCS_FitTversky>
1.539 

> <ROCS_FitColorTversky>
0.422 

> <ROCS_FitTverskyCombo>
1.961 

> <ROCS_ColorScore>
-6.028

> <ROCS_Overlap>
2137.215

> <ROCS_Rank>
313                 

$$$$
untitled-dbase-99215_351
  -OEChem-08222312023D

 60 62  0     1  0  0  0  0  0999 V2000
   -7.9744    2.9749  -11.3740 C   0  0  0  0  0  0  0  0  0  0  0  0
   -8.1376    3.1439  -12.7543 C   0  0  0  0  0  0  0  0  0  0  0  0
   -8.9201    5.3833  -12.3906 C   0  0  0  0  0  0  0  0  0  0  0  0
   -8.2872    3.9973  -10.4615 C   0  0  0  0  0  0  0  0  0  0  0  0
   -8.6170    4.3451  -13.2620 C   0  0  0  0  0  0  0  0  0  0  0  0
   -8.7374    5.2151  -11.0129 C   0  0  0  0  0  0  0  0  0  0  0  0
  -11.0897    3.0820   -6.1887 C   0  0  0  0  0  0  0  0  0  0  0  0
   -8.7014    5.6710  -15.3942 C   0  0  0  0  0  0  0  0  0  0  0  0
   -8.1957    2.5494   -8.4181 C   0  0  0  0  0  0  0  0  0  0  0  0
   -9.6377    2.2409   -8.0146 C   0  0  0  0  0  0  0  0  0  0  0  0
  -10.0813    4.7013   -7.8476 C   0  0  0  0  0  0  0  0  0  0  0  0
   -8.4190    6.2836   -8.9717 C   0  0  0  0  0  0  0  0  0  0  0  0
   -8.6186    4.9617   -8.2445 C   0  0  2  0  0  0  0  0  0  0  0  0
  -11.6900    3.2805   -3.3974 C   0  0  0  0  0  0  0  0  0  0  0  0
  -12.8851    5.4075   -3.9949 C   0  0  0  0  0  0  0  0  0  0  0  0
  -13.6718    3.2208   -4.9477 C   0  0  0  0  0  0  0  0  0  0  0  0
   -6.5583    5.5281  -16.8980 C   0  0  0  0  0  0  0  0  0  0  0  0
   -7.9875    4.6630  -18.7737 C   0  0  0  0  0  0  0  0  0  0  0  0
   -8.0803    7.0940  -18.1494 C   0  0  0  0  0  0  0  0  0  0  0  0
  -12.4578    4.0266   -4.4876 C   0  0  0  0  0  0  0  0  0  0  0  0
   -7.8925    5.6696  -17.6292 C   0  0  0  0  0  0  0  0  0  0  0  0
   -8.1588    3.8515   -9.0821 N   0  0  2  0  0  0  0  0  0  0  0  0
  -10.2515    3.3530   -7.2770 N   0  0  0  0  0  0  0  0  0  0  0  0
   -8.7941    4.5059  -14.6360 N   0  0  0  0  0  0  0  0  0  0  0  0
  -11.3614    1.9512   -5.7885 O   0  0  0  0  0  0  0  0  0  0  0  0
   -8.4421    6.7977  -14.9897 O   0  0  0  0  0  0  0  0  0  0  0  0
   -9.0728    6.3013  -10.2386 O   0  0  0  0  0  0  0  0  0  0  0  0
  -11.5868    4.2188   -5.6081 O   0  0  0  0  0  0  0  0  0  0  0  0
   -8.9501    5.3772  -16.7085 O   0  0  0  0  0  0  0  0  0  0  0  0
   -7.5851    2.0162  -11.0450 H   0  0  0  0  0  0  0  0  0  0  0  0
   -7.8812    2.3243  -13.4217 H   0  0  0  0  0  0  0  0  0  0  0  0
   -9.3058    6.3249  -12.7739 H   0  0  0  0  0  0  0  0  0  0  0  0
   -7.5633    2.5686   -7.5385 H   0  0  0  0  0  0  0  0  0  0  0  0
   -7.8861    1.7506   -9.0789 H   0  0  0  0  0  0  0  0  0  0  0  0
  -10.2547    2.0699   -8.9058 H   0  0  0  0  0  0  0  0  0  0  0  0
   -9.6699    1.3222   -7.4192 H   0  0  0  0  0  0  0  0  0  0  0  0
  -10.4172    5.4704   -7.1445 H   0  0  0  0  0  0  0  0  0  0  0  0
  -10.7434    4.7598   -8.7220 H   0  0  0  0  0  0  0  0  0  0  0  0
   -8.7654    7.1433   -8.3751 H   0  0  0  0  0  0  0  0  0  0  0  0
   -7.3493    6.4498   -9.1638 H   0  0  0  0  0  0  0  0  0  0  0  0
   -8.0019    4.9421   -7.3207 H   0  0  0  0  0  0  0  0  0  0  0  0
  -11.3815    2.2888   -3.7472 H   0  0  0  0  0  0  0  0  0  0  0  0
  -10.7976    3.8316   -3.0833 H   0  0  0  0  0  0  0  0  0  0  0  0
  -12.3221    3.1151   -2.5174 H   0  0  0  0  0  0  0  0  0  0  0  0
  -13.4363    5.9464   -4.7740 H   0  0  0  0  0  0  0  0  0  0  0  0
  -12.0113    6.0232   -3.7530 H   0  0  0  0  0  0  0  0  0  0  0  0
  -13.5191    5.3405   -3.1049 H   0  0  0  0  0  0  0  0  0  0  0  0
  -14.2227    3.7558   -5.7298 H   0  0  0  0  0  0  0  0  0  0  0  0
  -13.3806    2.2407   -5.3391 H   0  0  0  0  0  0  0  0  0  0  0  0
  -14.3758    3.0706   -4.1212 H   0  0  0  0  0  0  0  0  0  0  0  0
   -6.4863    6.2490  -16.0757 H   0  0  0  0  0  0  0  0  0  0  0  0
   -6.4269    4.5207  -16.4897 H   0  0  0  0  0  0  0  0  0  0  0  0
   -5.7194    5.7413  -17.5703 H   0  0  0  0  0  0  0  0  0  0  0  0
   -8.9432    4.7610  -19.3012 H   0  0  0  0  0  0  0  0  0  0  0  0
   -7.9483    3.6356  -18.3941 H   0  0  0  0  0  0  0  0  0  0  0  0
   -7.1768    4.7964  -19.4973 H   0  0  0  0  0  0  0  0  0  0  0  0
   -9.0372    7.1958  -18.6740 H   0  0  0  0  0  0  0  0  0  0  0  0
   -8.0520    7.8272  -17.3368 H   0  0  0  0  0  0  0  0  0  0  0  0
   -7.3006    7.3494  -18.8762 H   0  0  0  0  0  0  0  0  0  0  0  0
   -9.0233    3.6531  -15.1576 H   0  0  0  0  0  0  0  0  0  0  0  0
  1  2  1  0  0  0  0
  1  4  2  0  0  0  0
  2  5  2  0  0  0  0
  3  5  1  0  0  0  0
  3  6  2  0  0  0  0
  4  6  1  0  0  0  0
  4 22  1  0  0  0  0
  5 24  1  0  0  0  0
  6 27  1  0  0  0  0
  7 23  1  0  0  0  0
  7 25  2  0  0  0  0
  7 28  1  0  0  0  0
  8 24  1  0  0  0  0
  8 26  2  0  0  0  0
  8 29  1  0  0  0  0
  9 10  1  0  0  0  0
  9 22  1  0  0  0  0
 10 23  1  0  0  0  0
 11 13  1  0  0  0  0
 11 23  1  0  0  0  0
 12 13  1  0  0  0  0
 12 27  1  0  0  0  0
 13 22  1  0  0  0  0
 14 20  1  0  0  0  0
 15 20  1  0  0  0  0
 16 20  1  0  0  0  0
 17 21  1  0  0  0  0
 18 21  1  0  0  0  0
 19 21  1  0  0  0  0
 20 28  1  0  0  0  0
 21 29  1  0  0  0  0
  1 30  1  0  0  0  0
  2 31  1  0  0  0  0
  3 32  1  0  0  0  0
  9 33  1  0  0  0  0
  9 34  1  0  0  0  0
 10 35  1  0  0  0  0
 10 36  1  0  0  0  0
 11 37  1  0  0  0  0
 11 38  1  0  0  0  0
 12 39  1  0  0  0  0
 12 40  1  0  0  0  0
 13 41  1  0  0  0  0
 14 42  1  0  0  0  0
 14 43  1  0  0  0  0
 14 44  1  0  0  0  0
 15 45  1  0  0  0  0
 15 46  1  0  0  0  0
 15 47  1  0  0  0  0
 16 48  1  0  0  0  0
 16 49  1  0  0  0  0
 16 50  1  0  0  0  0
 17 51  1  0  0  0  0
 17 52  1  0  0  0  0
 17 53  1  0  0  0  0
 18 54  1  0  0  0  0
 18 55  1  0  0  0  0
 18 56  1  0  0  0  0
 19 57  1  0  0  0  0
 19 58  1  0  0  0  0
 19 59  1  0  0  0  0
 24 60  1  0  0  0  0
M  END
> <id>
EN300-37456455

> <smiles>
CC(C)(C)OC(=O)NC=1C=CC=2N3CCN(CC3COC2C1)C(=O)OC(C)(C)C

> <IUPAC Name>
tert-butyl 5-{[(tert-butoxy)carbonyl]amino}-8-oxa-1,12-diazatricyclo[8.4.0.0,2,7]tetradeca-2,4,6-triene-12-carboxylate

> <URL>
https://www.enaminestore.com/catalog/EN300-37456455

> <ROCS_ShapeQuery>
_x0404_0B

> <ROCS_TanimotoCombo>
0.435 

> <ROCS_ShapeTanimoto>
0.366 

> <ROCS_ColorTanimoto>
0.070 

> <ROCS_RefTversky>
0.332 

> <ROCS_RefColorTversky>
0.076 

> <ROCS_RefTverskyCombo>
0.408 

> <ROCS_FitTversky>
1.389 

> <ROCS_FitColorTversky>
0.446 

> <ROCS_FitTverskyCombo>
1.835 

> <ROCS_ColorScore>
-5.499

> <ROCS_Overlap>
2218.680

> <ROCS_Rank>
314                 

$$$$
untitled-dbase-92290_527
  -OEChem-08222312023D

 56 58  0     0  0  0  0  0  0999 V2000
   -9.0607    2.8570   -9.4879 C   0  0  0  0  0  0  0  0  0  0  0  0
   -8.9579    4.5666   -7.7838 C   0  0  0  0  0  0  0  0  0  0  0  0
   -9.1576    1.8776   -8.4995 C   0  0  0  0  0  0  0  0  0  0  0  0
   -9.0549    3.5872   -6.7954 C   0  0  0  0  0  0  0  0  0  0  0  0
   -8.9608    4.2016   -9.1301 C   0  0  0  0  0  0  0  0  0  0  0  0
   -9.1548    2.2427   -7.1532 C   0  0  0  0  0  0  0  0  0  0  0  0
   -7.4962    5.3069  -17.2643 C   0  0  0  0  0  0  0  0  0  0  0  0
  -10.0939    5.2473  -11.1349 C   0  0  0  0  0  0  0  0  0  0  0  0
   -7.5470    5.1105  -11.0196 C   0  0  0  0  0  0  0  0  0  0  0  0
   -9.9708    6.1780  -12.3461 C   0  0  0  0  0  0  0  0  0  0  0  0
   -7.4598    6.0357  -12.2395 C   0  0  0  0  0  0  0  0  0  0  0  0
   -8.6055    7.0442  -14.2690 C   0  0  0  0  0  0  0  0  0  0  0  0
   -8.7653    4.5674  -13.8973 C   0  0  0  0  0  0  0  0  0  0  0  0
   -7.4962    6.8053  -15.2906 C   0  0  0  0  0  0  0  0  0  0  0  0
   -7.6593    4.3547  -14.9310 C   0  0  0  0  0  0  0  0  0  0  0  0
   -8.8542    5.2776  -10.2161 C   0  0  0  0  0  0  0  0  0  0  0  0
   -8.6877    5.9418  -13.1812 C   0  0  0  0  0  0  0  0  0  0  0  0
   -8.6169    5.1628  -19.8941 C   0  0  0  0  0  0  0  0  0  0  0  0
   -9.8962    3.1773  -19.0393 C   0  0  0  0  0  0  0  0  0  0  0  0
  -10.2628    5.4389  -18.0101 C   0  0  0  0  0  0  0  0  0  0  0  0
   -9.2445    4.5068  -18.6650 C   0  0  0  0  0  0  0  0  0  0  0  0
   -7.5873    5.4706  -15.8774 N   0  0  0  0  0  0  0  0  0  0  0  0
   -6.8506    6.0434  -18.0081 O   0  0  0  0  0  0  0  0  0  0  0  0
   -8.8138    6.5676   -9.5862 O   0  0  0  0  0  0  0  0  0  0  0  0
   -8.2070    4.2272  -17.7180 O   0  0  0  0  0  0  0  0  0  0  0  0
   -9.2856    0.9151   -5.8147 Br  0  0  0  0  0  0  0  0  0  0  0  0
   -9.0639    2.5634  -10.5343 H   0  0  0  0  0  0  0  0  0  0  0  0
   -8.8795    5.6116   -7.4957 H   0  0  0  0  0  0  0  0  0  0  0  0
   -9.2338    0.8344   -8.7953 H   0  0  0  0  0  0  0  0  0  0  0  0
   -9.0515    3.8883   -5.7511 H   0  0  0  0  0  0  0  0  0  0  0  0
  -10.9837    5.5451  -10.5653 H   0  0  0  0  0  0  0  0  0  0  0  0
  -10.2787    4.2251  -11.4859 H   0  0  0  0  0  0  0  0  0  0  0  0
   -7.4392    4.0695  -11.3524 H   0  0  0  0  0  0  0  0  0  0  0  0
   -6.6840    5.3187  -10.3721 H   0  0  0  0  0  0  0  0  0  0  0  0
  -10.8714    6.0662  -12.9585 H   0  0  0  0  0  0  0  0  0  0  0  0
   -9.9829    7.2158  -11.9884 H   0  0  0  0  0  0  0  0  0  0  0  0
   -7.3459    7.0704  -11.8895 H   0  0  0  0  0  0  0  0  0  0  0  0
   -6.5404    5.8031  -12.7923 H   0  0  0  0  0  0  0  0  0  0  0  0
   -8.4294    8.0175  -13.7908 H   0  0  0  0  0  0  0  0  0  0  0  0
   -9.5645    7.1309  -14.7952 H   0  0  0  0  0  0  0  0  0  0  0  0
   -9.7339    4.4270  -14.3885 H   0  0  0  0  0  0  0  0  0  0  0  0
   -8.6887    3.7662  -13.1491 H   0  0  0  0  0  0  0  0  0  0  0  0
   -7.5537    7.5285  -16.1117 H   0  0  0  0  0  0  0  0  0  0  0  0
   -6.5220    6.9471  -14.8108 H   0  0  0  0  0  0  0  0  0  0  0  0
   -6.7070    4.2158  -14.4108 H   0  0  0  0  0  0  0  0  0  0  0  0
   -7.8362    3.4448  -15.5148 H   0  0  0  0  0  0  0  0  0  0  0  0
   -8.1481    6.1173  -19.6297 H   0  0  0  0  0  0  0  0  0  0  0  0
   -7.8596    4.5187  -20.3528 H   0  0  0  0  0  0  0  0  0  0  0  0
   -9.3794    5.3912  -20.6476 H   0  0  0  0  0  0  0  0  0  0  0  0
  -10.3477    2.7031  -18.1604 H   0  0  0  0  0  0  0  0  0  0  0  0
   -9.1505    2.4712  -19.4221 H   0  0  0  0  0  0  0  0  0  0  0  0
  -10.6726    3.3080  -19.8000 H   0  0  0  0  0  0  0  0  0  0  0  0
  -10.7131    4.9686  -17.1285 H   0  0  0  0  0  0  0  0  0  0  0  0
   -9.8044    6.3840  -17.7014 H   0  0  0  0  0  0  0  0  0  0  0  0
  -11.0873    5.6600  -18.6976 H   0  0  0  0  0  0  0  0  0  0  0  0
   -8.7467    7.2205  -10.2997 H   0  0  0  0  0  0  0  0  0  0  0  0
  1  3  1  0  0  0  0
  1  5  2  0  0  0  0
  2  4  2  0  0  0  0
  2  5  1  0  0  0  0
  3  6  2  0  0  0  0
  4  6  1  0  0  0  0
  5 16  1  0  0  0  0
  6 26  1  0  0  0  0
  7 22  1  0  0  0  0
  7 23  2  0  0  0  0
  7 25  1  0  0  0  0
  8 10  1  0  0  0  0
  8 16  1  0  0  0  0
  9 11  1  0  0  0  0
  9 16  1  0  0  0  0
 10 17  1  0  0  0  0
 11 17  1  0  0  0  0
 12 14  1  0  0  0  0
 12 17  1  0  0  0  0
 13 15  1  0  0  0  0
 13 17  1  0  0  0  0
 14 22  1  0  0  0  0
 15 22  1  0  0  0  0
 16 24  1  0  0  0  0
 18 21  1  0  0  0  0
 19 21  1  0  0  0  0
 20 21  1  0  0  0  0
 21 25  1  0  0  0  0
  1 27  1  0  0  0  0
  2 28  1  0  0  0  0
  3 29  1  0  0  0  0
  4 30  1  0  0  0  0
  8 31  1  0  0  0  0
  8 32  1  0  0  0  0
  9 33  1  0  0  0  0
  9 34  1  0  0  0  0
 10 35  1  0  0  0  0
 10 36  1  0  0  0  0
 11 37  1  0  0  0  0
 11 38  1  0  0  0  0
 12 39  1  0  0  0  0
 12 40  1  0  0  0  0
 13 41  1  0  0  0  0
 13 42  1  0  0  0  0
 14 43  1  0  0  0  0
 14 44  1  0  0  0  0
 15 45  1  0  0  0  0
 15 46  1  0  0  0  0
 18 47  1  0  0  0  0
 18 48  1  0  0  0  0
 18 49  1  0  0  0  0
 19 50  1  0  0  0  0
 19 51  1  0  0  0  0
 19 52  1  0  0  0  0
 20 53  1  0  0  0  0
 20 54  1  0  0  0  0
 20 55  1  0  0  0  0
 24 56  1  0  0  0  0
M  END
> <id>
EN300-7428351

> <smiles>
CC(C)(C)OC(=O)N1CCC2(CC1)CCC(O)(CC2)C=3C=CC(Br)=CC3

> <IUPAC Name>
tert-butyl 9-(4-bromophenyl)-9-hydroxy-3-azaspiro[5.5]undecane-3-carboxylate

> <CAS>
2309449-12-3

> <URL>
https://www.enaminestore.com/catalog/EN300-7428351

> <ROCS_ShapeQuery>
_x0404_0B

> <ROCS_TanimotoCombo>
0.435 

> <ROCS_ShapeTanimoto>
0.389 

> <ROCS_ColorTanimoto>
0.047 

> <ROCS_RefTversky>
0.340 

> <ROCS_RefColorTversky>
0.051 

> <ROCS_RefTverskyCombo>
0.391 

> <ROCS_FitTversky>
1.589 

> <ROCS_FitColorTversky>
0.326 

> <ROCS_FitTverskyCombo>
1.916 

> <ROCS_ColorScore>
-3.715

> <ROCS_Overlap>
2269.430

> <ROCS_Rank>
315                 

$$$$
untitled-dbase-115773_26
  -OEChem-08222312023D

 51 53  0     0  0  0  0  0  0999 V2000
   -8.9955    2.8529  -10.1489 C   0  0  0  0  0  0  0  0  0  0  0  0
   -9.1480    1.9090   -9.1545 C   0  0  0  0  0  0  0  0  0  0  0  0
   -8.9116    4.1135   -9.5029 C   0  0  0  0  0  0  0  0  0  0  0  0
   -9.0397    3.8210   -8.1604 C   0  0  0  0  0  0  0  0  0  0  0  0
   -8.6968    5.1086  -15.3492 C   0  0  0  0  0  0  0  0  0  0  0  0
   -9.0246    4.7760   -7.0376 C   0  0  0  0  0  0  0  0  0  0  0  0
   -7.6023    5.6986  -11.0172 C   0  0  0  0  0  0  0  0  0  0  0  0
  -10.0864    6.0702  -10.6091 C   0  0  0  0  0  0  0  0  0  0  0  0
   -7.9099    5.2235  -12.4411 C   0  0  0  0  0  0  0  0  0  0  0  0
  -10.3770    5.5453  -12.0188 C   0  0  0  0  0  0  0  0  0  0  0  0
   -9.2079    6.1884   -7.6190 C   0  0  0  0  0  0  0  0  0  0  0  0
   -8.7655    5.5373  -10.0065 C   0  0  0  0  0  0  0  0  0  0  0  0
   -9.2244    5.7870  -13.0108 C   0  0  0  0  0  0  0  0  0  0  0  0
   -9.0814    7.2836  -13.3335 C   0  0  0  0  0  0  0  0  0  0  0  0
   -7.4221    4.6953  -17.8700 C   0  0  0  0  0  0  0  0  0  0  0  0
   -9.6514    3.8378  -18.6474 C   0  0  0  0  0  0  0  0  0  0  0  0
   -9.4249    6.2195  -17.8832 C   0  0  0  0  0  0  0  0  0  0  0  0
   -8.9364    4.7851  -17.6864 C   0  0  0  0  0  0  0  0  0  0  0  0
   -8.3947    6.4008   -8.8323 N   0  0  0  0  0  0  0  0  0  0  0  0
   -9.5283    5.0958  -14.2566 N   0  0  0  0  0  0  0  0  0  0  0  0
   -7.6166    5.6844  -15.4288 O   0  0  0  0  0  0  0  0  0  0  0  0
   -9.1745    2.4976   -7.9289 O   0  0  0  0  0  0  0  0  0  0  0  0
   -9.2592    4.3723  -16.3537 O   0  0  0  0  0  0  0  0  0  0  0  0
   -8.9525    2.6519  -11.2120 H   0  0  0  0  0  0  0  0  0  0  0  0
   -9.2500    0.8338   -9.1576 H   0  0  0  0  0  0  0  0  0  0  0  0
   -9.8199    4.5551   -6.3181 H   0  0  0  0  0  0  0  0  0  0  0  0
   -8.0630    4.7058   -6.5161 H   0  0  0  0  0  0  0  0  0  0  0  0
   -6.7056    5.1654  -10.6489 H   0  0  0  0  0  0  0  0  0  0  0  0
   -7.2869    6.7596  -11.0607 H   0  0  0  0  0  0  0  0  0  0  0  0
  -10.0969    7.1705  -10.6305 H   0  0  0  0  0  0  0  0  0  0  0  0
  -10.9269    5.7976   -9.9504 H   0  0  0  0  0  0  0  0  0  0  0  0
   -7.0702    5.4895  -13.1036 H   0  0  0  0  0  0  0  0  0  0  0  0
   -7.9407    4.1214  -12.4487 H   0  0  0  0  0  0  0  0  0  0  0  0
  -10.5918    4.4667  -11.9548 H   0  0  0  0  0  0  0  0  0  0  0  0
  -11.3052    5.9961  -12.4000 H   0  0  0  0  0  0  0  0  0  0  0  0
  -10.2640    6.3783   -7.8346 H   0  0  0  0  0  0  0  0  0  0  0  0
   -8.9081    6.9194   -6.8618 H   0  0  0  0  0  0  0  0  0  0  0  0
  -10.0193    7.6573  -13.7329 H   0  0  0  0  0  0  0  0  0  0  0  0
   -8.2934    7.4200  -14.0679 H   0  0  0  0  0  0  0  0  0  0  0  0
   -8.8309    7.8253  -12.4263 H   0  0  0  0  0  0  0  0  0  0  0  0
   -6.9052    5.3738  -17.1819 H   0  0  0  0  0  0  0  0  0  0  0  0
   -7.0545    3.6785  -17.6972 H   0  0  0  0  0  0  0  0  0  0  0  0
   -7.1320    5.0010  -18.8817 H   0  0  0  0  0  0  0  0  0  0  0  0
  -10.7381    3.8990  -18.5192 H   0  0  0  0  0  0  0  0  0  0  0  0
   -9.3750    2.7963  -18.4466 H   0  0  0  0  0  0  0  0  0  0  0  0
   -9.4121    4.0648  -19.6913 H   0  0  0  0  0  0  0  0  0  0  0  0
  -10.5110    6.2843  -17.7516 H   0  0  0  0  0  0  0  0  0  0  0  0
   -8.9496    6.9079  -17.1769 H   0  0  0  0  0  0  0  0  0  0  0  0
   -9.2156    6.5662  -18.9016 H   0  0  0  0  0  0  0  0  0  0  0  0
   -8.4258    7.3844   -9.0919 H   0  0  0  0  0  0  0  0  0  0  0  0
  -10.3951    4.5806  -14.3198 H   0  0  0  0  0  0  0  0  0  0  0  0
  1  2  2  0  0  0  0
  1  3  1  0  0  0  0
  2 22  1  0  0  0  0
  3  4  2  0  0  0  0
  3 12  1  0  0  0  0
  4  6  1  0  0  0  0
  4 22  1  0  0  0  0
  5 20  1  0  0  0  0
  5 21  2  0  0  0  0
  5 23  1  0  0  0  0
  6 11  1  0  0  0  0
  7  9  1  0  0  0  0
  7 12  1  0  0  0  0
  8 10  1  0  0  0  0
  8 12  1  0  0  0  0
  9 13  1  0  0  0  0
 10 13  1  0  0  0  0
 11 19  1  0  0  0  0
 12 19  1  0  0  0  0
 13 14  1  0  0  0  0
 13 20  1  0  0  0  0
 15 18  1  0  0  0  0
 16 18  1  0  0  0  0
 17 18  1  0  0  0  0
 18 23  1  0  0  0  0
  1 24  1  0  0  0  0
  2 25  1  0  0  0  0
  6 26  1  0  0  0  0
  6 27  1  0  0  0  0
  7 28  1  0  0  0  0
  7 29  1  0  0  0  0
  8 30  1  0  0  0  0
  8 31  1  0  0  0  0
  9 32  1  0  0  0  0
  9 33  1  0  0  0  0
 10 34  1  0  0  0  0
 10 35  1  0  0  0  0
 11 36  1  0  0  0  0
 11 37  1  0  0  0  0
 14 38  1  0  0  0  0
 14 39  1  0  0  0  0
 14 40  1  0  0  0  0
 15 41  1  0  0  0  0
 15 42  1  0  0  0  0
 15 43  1  0  0  0  0
 16 44  1  0  0  0  0
 16 45  1  0  0  0  0
 16 46  1  0  0  0  0
 17 47  1  0  0  0  0
 17 48  1  0  0  0  0
 17 49  1  0  0  0  0
 19 50  1  0  0  0  0
 20 51  1  0  0  0  0
M  END
> <id>
EN300-1077004

> <smiles>
CC(C)(C)OC(=O)NC1(C)CCC2(CC1)NCCC=3OC=CC32

> <IUPAC Name>
tert-butyl N-{4-methyl-6',7'-dihydro-5'H-spiro[cyclohexane-1,4'-furo[3,2-c]pyridine]-4-yl}carbamate

> <CAS>
2138394-40-6

> <URL>
https://www.enaminestore.com/catalog/EN300-1077004

> <ROCS_ShapeQuery>
_x0404_0B

> <ROCS_TanimotoCombo>
0.435 

> <ROCS_ShapeTanimoto>
0.361 

> <ROCS_ColorTanimoto>
0.074 

> <ROCS_RefTversky>
0.318 

> <ROCS_RefColorTversky>
0.080 

> <ROCS_RefTverskyCombo>
0.399 

> <ROCS_FitTversky>
1.599 

> <ROCS_FitColorTversky>
0.470 

> <ROCS_FitTverskyCombo>
2.069 

> <ROCS_ColorScore>
-5.803

> <ROCS_Overlap>
2125.346

> <ROCS_Rank>
316                 

$$$$
untitled-dbase-101560_787
  -OEChem-08222312023D

 52 54  0     1  0  0  0  0  0999 V2000
  -10.0035    4.6876  -17.1927 C   0  0  0  0  0  0  0  0  0  0  0  0
   -9.8696    4.0374  -18.4089 C   0  0  0  0  0  0  0  0  0  0  0  0
   -7.5981    4.3798  -18.4434 C   0  0  0  0  0  0  0  0  0  0  0  0
   -8.8552    5.1987  -16.5980 C   0  0  0  0  0  0  0  0  0  0  0  0
   -7.6256    5.0461  -17.2289 C   0  0  0  0  0  0  0  0  0  0  0  0
   -8.7140    5.0966   -8.5421 C   0  0  0  0  0  0  0  0  0  0  0  0
  -10.4097    6.0031  -14.6928 C   0  0  0  0  0  0  0  0  0  0  0  0
  -10.1968    6.3817  -13.2322 C   0  0  0  0  0  0  0  0  0  0  0  0
   -8.0546    6.4132  -11.8477 C   0  0  0  0  0  0  0  0  0  0  0  0
   -9.3492    4.2736  -12.0645 C   0  0  0  0  0  0  0  0  0  0  0  0
   -8.2050    5.2454  -14.1146 C   0  0  0  0  0  0  0  0  0  0  0  0
   -8.6954    6.6413  -10.4813 C   0  0  0  0  0  0  0  0  0  0  0  0
   -9.9369    4.5023  -10.6709 C   0  0  0  0  0  0  0  0  0  0  0  0
   -8.9902    5.9125  -15.2661 C   0  0  1  0  0  0  0  0  0  0  0  0
   -8.9513    5.5827  -12.7895 C   0  0  0  0  0  0  0  0  0  0  0  0
  -10.7094    3.9400   -7.2893 C   0  0  0  0  0  0  0  0  0  0  0  0
   -9.6196    1.7152   -7.7040 C   0  0  0  0  0  0  0  0  0  0  0  0
   -8.6801    3.2630   -5.9633 C   0  0  0  0  0  0  0  0  0  0  0  0
   -9.3877    3.1736   -7.3146 C   0  0  0  0  0  0  0  0  0  0  0  0
   -8.6923    3.8697  -19.0519 N   0  0  0  0  0  0  0  0  0  0  0  0
   -9.0814    5.3749   -9.8630 N   0  0  0  0  0  0  0  0  0  0  0  0
   -8.5603    5.9508   -7.6709 O   0  0  0  0  0  0  0  0  0  0  0  0
   -8.4917    7.2380  -15.4818 O   0  0  0  0  0  0  0  0  0  0  0  0
   -8.5415    3.7572   -8.3119 O   0  0  0  0  0  0  0  0  0  0  0  0
   -6.0171    5.7090  -16.4922 Br  0  0  0  0  0  0  0  0  0  0  0  0
  -10.9780    4.7894  -16.7273 H   0  0  0  0  0  0  0  0  0  0  0  0
  -10.7348    3.6208  -18.9141 H   0  0  0  0  0  0  0  0  0  0  0  0
   -6.6715    4.2261  -18.9885 H   0  0  0  0  0  0  0  0  0  0  0  0
  -10.9292    5.0380  -14.7549 H   0  0  0  0  0  0  0  0  0  0  0  0
  -11.0208    6.7556  -15.2042 H   0  0  0  0  0  0  0  0  0  0  0  0
  -10.0169    7.4617  -13.1587 H   0  0  0  0  0  0  0  0  0  0  0  0
  -11.0848    6.1642  -12.6296 H   0  0  0  0  0  0  0  0  0  0  0  0
   -7.8492    7.3883  -12.3058 H   0  0  0  0  0  0  0  0  0  0  0  0
   -7.0859    5.9201  -11.7127 H   0  0  0  0  0  0  0  0  0  0  0  0
   -8.4834    3.6008  -11.9844 H   0  0  0  0  0  0  0  0  0  0  0  0
  -10.0969    3.7348  -12.6661 H   0  0  0  0  0  0  0  0  0  0  0  0
   -8.1661    4.1586  -14.2642 H   0  0  0  0  0  0  0  0  0  0  0  0
   -7.1683    5.6041  -14.1027 H   0  0  0  0  0  0  0  0  0  0  0  0
   -7.9979    7.1366   -9.7979 H   0  0  0  0  0  0  0  0  0  0  0  0
   -9.5637    7.2983  -10.5881 H   0  0  0  0  0  0  0  0  0  0  0  0
  -10.9465    4.9156  -10.7697 H   0  0  0  0  0  0  0  0  0  0  0  0
  -10.0353    3.5552  -10.1260 H   0  0  0  0  0  0  0  0  0  0  0  0
  -10.5472    4.9873   -7.0102 H   0  0  0  0  0  0  0  0  0  0  0  0
  -11.2100    3.9130   -8.2627 H   0  0  0  0  0  0  0  0  0  0  0  0
  -11.3896    3.5218   -6.5385 H   0  0  0  0  0  0  0  0  0  0  0  0
   -8.6739    1.1615   -7.7234 H   0  0  0  0  0  0  0  0  0  0  0  0
  -10.0403    1.6430   -8.7134 H   0  0  0  0  0  0  0  0  0  0  0  0
  -10.3003    1.2145   -7.0079 H   0  0  0  0  0  0  0  0  0  0  0  0
   -7.7321    2.7133   -5.9811 H   0  0  0  0  0  0  0  0  0  0  0  0
   -8.4724    4.3012   -5.6846 H   0  0  0  0  0  0  0  0  0  0  0  0
   -9.2879    2.8056   -5.1742 H   0  0  0  0  0  0  0  0  0  0  0  0
   -8.5718    7.7079  -14.6362 H   0  0  0  0  0  0  0  0  0  0  0  0
  1  2  1  0  0  0  0
  1  4  2  0  0  0  0
  2 20  2  0  0  0  0
  3  5  2  0  0  0  0
  3 20  1  0  0  0  0
  4  5  1  0  0  0  0
  4 14  1  0  0  0  0
  5 25  1  0  0  0  0
  6 21  1  0  0  0  0
  6 22  2  0  0  0  0
  6 24  1  0  0  0  0
  7  8  1  0  0  0  0
  7 14  1  0  0  0  0
  8 15  1  0  0  0  0
  9 12  1  0  0  0  0
  9 15  1  0  0  0  0
 10 13  1  0  0  0  0
 10 15  1  0  0  0  0
 11 14  1  0  0  0  0
 11 15  1  0  0  0  0
 12 21  1  0  0  0  0
 13 21  1  0  0  0  0
 14 23  1  0  0  0  0
 16 19  1  0  0  0  0
 17 19  1  0  0  0  0
 18 19  1  0  0  0  0
 19 24  1  0  0  0  0
  1 26  1  0  0  0  0
  2 27  1  0  0  0  0
  3 28  1  0  0  0  0
  7 29  1  0  0  0  0
  7 30  1  0  0  0  0
  8 31  1  0  0  0  0
  8 32  1  0  0  0  0
  9 33  1  0  0  0  0
  9 34  1  0  0  0  0
 10 35  1  0  0  0  0
 10 36  1  0  0  0  0
 11 37  1  0  0  0  0
 11 38  1  0  0  0  0
 12 39  1  0  0  0  0
 12 40  1  0  0  0  0
 13 41  1  0  0  0  0
 13 42  1  0  0  0  0
 16 43  1  0  0  0  0
 16 44  1  0  0  0  0
 16 45  1  0  0  0  0
 17 46  1  0  0  0  0
 17 47  1  0  0  0  0
 17 48  1  0  0  0  0
 18 49  1  0  0  0  0
 18 50  1  0  0  0  0
 18 51  1  0  0  0  0
 23 52  1  0  0  0  0
M  END
> <id>
EN300-7428814

> <smiles>
CC(C)(C)OC(=O)N1CCC2(CCC(O)(C2)C=3C=CN=CC3Br)CC1

> <IUPAC Name>
tert-butyl 2-(3-bromopyridin-4-yl)-2-hydroxy-8-azaspiro[4.5]decane-8-carboxylate

> <CAS>
2309465-51-6

> <URL>
https://www.enaminestore.com/catalog/EN300-7428814

> <ROCS_ShapeQuery>
_x0404_0B

> <ROCS_TanimotoCombo>
0.435 

> <ROCS_ShapeTanimoto>
0.380 

> <ROCS_ColorTanimoto>
0.055 

> <ROCS_RefTversky>
0.333 

> <ROCS_RefColorTversky>
0.061 

> <ROCS_RefTverskyCombo>
0.394 

> <ROCS_FitTversky>
1.592 

> <ROCS_FitColorTversky>
0.356 

> <ROCS_FitTverskyCombo>
1.947 

> <ROCS_ColorScore>
-4.384

> <ROCS_Overlap>
2226.060

> <ROCS_Rank>
317                 

$$$$
untitled-dbase-91010_721
  -OEChem-08222312023D

 52 54  0     1  0  0  0  0  0999 V2000
   -9.9161    4.0294  -18.4216 C   0  0  0  0  0  0  0  0  0  0  0  0
  -10.0140    4.6883  -17.2011 C   0  0  0  0  0  0  0  0  0  0  0  0
   -8.6598    3.9053  -18.9926 C   0  0  0  0  0  0  0  0  0  0  0  0
   -8.8689    5.1958  -16.5975 C   0  0  0  0  0  0  0  0  0  0  0  0
   -7.6594    5.0193  -17.2501 C   0  0  0  0  0  0  0  0  0  0  0  0
   -8.7156    5.0962   -8.5418 C   0  0  0  0  0  0  0  0  0  0  0  0
  -10.4141    6.0129  -14.6902 C   0  0  0  0  0  0  0  0  0  0  0  0
  -10.1960    6.3906  -13.2301 C   0  0  0  0  0  0  0  0  0  0  0  0
   -8.0514    6.4063  -11.8490 C   0  0  0  0  0  0  0  0  0  0  0  0
   -9.3627    4.2765  -12.0628 C   0  0  0  0  0  0  0  0  0  0  0  0
   -8.2143    5.2387  -14.1152 C   0  0  0  0  0  0  0  0  0  0  0  0
   -8.6883    6.6400  -10.4817 C   0  0  0  0  0  0  0  0  0  0  0  0
   -9.9464    4.5104  -10.6684 C   0  0  0  0  0  0  0  0  0  0  0  0
   -8.9963    5.9113  -15.2657 C   0  0  1  0  0  0  0  0  0  0  0  0
   -8.9559    5.5822  -12.7890 C   0  0  0  0  0  0  0  0  0  0  0  0
  -10.7177    3.9554   -7.2853 C   0  0  0  0  0  0  0  0  0  0  0  0
   -9.6455    1.7223   -7.7007 C   0  0  0  0  0  0  0  0  0  0  0  0
   -8.6916    3.2636   -5.9622 C   0  0  0  0  0  0  0  0  0  0  0  0
   -9.4020    3.1790   -7.3123 C   0  0  0  0  0  0  0  0  0  0  0  0
   -7.5249    4.3850  -18.4364 N   0  0  0  0  0  0  0  0  0  0  0  0
   -9.0829    5.3768   -9.8623 N   0  0  0  0  0  0  0  0  0  0  0  0
   -8.5540    5.9497   -7.6712 O   0  0  0  0  0  0  0  0  0  0  0  0
   -8.4880    7.2328  -15.4828 O   0  0  0  0  0  0  0  0  0  0  0  0
   -8.5529    3.7557   -8.3113 O   0  0  0  0  0  0  0  0  0  0  0  0
   -6.0488    5.6886  -16.4813 Br  0  0  0  0  0  0  0  0  0  0  0  0
  -10.7953    3.6261  -18.9107 H   0  0  0  0  0  0  0  0  0  0  0  0
  -10.9866    4.8008  -16.7297 H   0  0  0  0  0  0  0  0  0  0  0  0
   -8.5298    3.4004  -19.9442 H   0  0  0  0  0  0  0  0  0  0  0  0
  -10.9411    5.0518  -14.7510 H   0  0  0  0  0  0  0  0  0  0  0  0
  -11.0203    6.7698  -15.2010 H   0  0  0  0  0  0  0  0  0  0  0  0
  -10.0079    7.4691  -13.1574 H   0  0  0  0  0  0  0  0  0  0  0  0
  -11.0847    6.1800  -12.6260 H   0  0  0  0  0  0  0  0  0  0  0  0
   -7.8394    7.3797  -12.3079 H   0  0  0  0  0  0  0  0  0  0  0  0
   -7.0863    5.9059  -11.7153 H   0  0  0  0  0  0  0  0  0  0  0  0
   -8.5019    3.5972  -11.9837 H   0  0  0  0  0  0  0  0  0  0  0  0
  -10.1154    3.7431  -12.6630 H   0  0  0  0  0  0  0  0  0  0  0  0
   -8.1839    4.1516  -14.2643 H   0  0  0  0  0  0  0  0  0  0  0  0
   -7.1749    5.5895  -14.1051 H   0  0  0  0  0  0  0  0  0  0  0  0
   -7.9860    7.1302   -9.7997 H   0  0  0  0  0  0  0  0  0  0  0  0
   -9.5518    7.3034  -10.5874 H   0  0  0  0  0  0  0  0  0  0  0  0
  -10.9530    4.9313  -10.7658 H   0  0  0  0  0  0  0  0  0  0  0  0
  -10.0512    3.5642  -10.1229 H   0  0  0  0  0  0  0  0  0  0  0  0
  -10.5472    5.0016   -7.0069 H   0  0  0  0  0  0  0  0  0  0  0  0
  -11.2201    3.9318   -8.2578 H   0  0  0  0  0  0  0  0  0  0  0  0
  -11.3999    3.5427   -6.5333 H   0  0  0  0  0  0  0  0  0  0  0  0
   -8.7041    1.1614   -7.7213 H   0  0  0  0  0  0  0  0  0  0  0  0
  -10.0684    1.6527   -8.7094 H   0  0  0  0  0  0  0  0  0  0  0  0
  -10.3289    1.2270   -7.0033 H   0  0  0  0  0  0  0  0  0  0  0  0
   -7.7478    2.7067   -5.9813 H   0  0  0  0  0  0  0  0  0  0  0  0
   -8.4756    4.3003   -5.6843 H   0  0  0  0  0  0  0  0  0  0  0  0
   -9.3016    2.8112   -5.1719 H   0  0  0  0  0  0  0  0  0  0  0  0
   -8.5633    7.7037  -14.6373 H   0  0  0  0  0  0  0  0  0  0  0  0
  1  2  1  0  0  0  0
  1  3  2  0  0  0  0
  2  4  2  0  0  0  0
  3 20  1  0  0  0  0
  4  5  1  0  0  0  0
  4 14  1  0  0  0  0
  5 20  2  0  0  0  0
  5 25  1  0  0  0  0
  6 21  1  0  0  0  0
  6 22  2  0  0  0  0
  6 24  1  0  0  0  0
  7  8  1  0  0  0  0
  7 14  1  0  0  0  0
  8 15  1  0  0  0  0
  9 12  1  0  0  0  0
  9 15  1  0  0  0  0
 10 13  1  0  0  0  0
 10 15  1  0  0  0  0
 11 14  1  0  0  0  0
 11 15  1  0  0  0  0
 12 21  1  0  0  0  0
 13 21  1  0  0  0  0
 14 23  1  0  0  0  0
 16 19  1  0  0  0  0
 17 19  1  0  0  0  0
 18 19  1  0  0  0  0
 19 24  1  0  0  0  0
  1 26  1  0  0  0  0
  2 27  1  0  0  0  0
  3 28  1  0  0  0  0
  7 29  1  0  0  0  0
  7 30  1  0  0  0  0
  8 31  1  0  0  0  0
  8 32  1  0  0  0  0
  9 33  1  0  0  0  0
  9 34  1  0  0  0  0
 10 35  1  0  0  0  0
 10 36  1  0  0  0  0
 11 37  1  0  0  0  0
 11 38  1  0  0  0  0
 12 39  1  0  0  0  0
 12 40  1  0  0  0  0
 13 41  1  0  0  0  0
 13 42  1  0  0  0  0
 16 43  1  0  0  0  0
 16 44  1  0  0  0  0
 16 45  1  0  0  0  0
 17 46  1  0  0  0  0
 17 47  1  0  0  0  0
 17 48  1  0  0  0  0
 18 49  1  0  0  0  0
 18 50  1  0  0  0  0
 18 51  1  0  0  0  0
 23 52  1  0  0  0  0
M  END
> <id>
EN300-7428815

> <smiles>
CC(C)(C)OC(=O)N1CCC2(CCC(O)(C2)C=3C=CC=NC3Br)CC1

> <IUPAC Name>
tert-butyl 2-(2-bromopyridin-3-yl)-2-hydroxy-8-azaspiro[4.5]decane-8-carboxylate

> <CAS>
2309474-79-9

> <URL>
https://www.enaminestore.com/catalog/EN300-7428815

> <ROCS_ShapeQuery>
_x0404_0B

> <ROCS_TanimotoCombo>
0.435 

> <ROCS_ShapeTanimoto>
0.380 

> <ROCS_ColorTanimoto>
0.055 

> <ROCS_RefTversky>
0.333 

> <ROCS_RefColorTversky>
0.061 

> <ROCS_RefTverskyCombo>
0.394 

> <ROCS_FitTversky>
1.592 

> <ROCS_FitColorTversky>
0.356 

> <ROCS_FitTverskyCombo>
1.947 

> <ROCS_ColorScore>
-4.384

> <ROCS_Overlap>
2225.948

> <ROCS_Rank>
318                 

$$$$
untitled-dbase-39946_226
  -OEChem-08222312023D

 45 47  0     1  0  0  0  0  0999 V2000
   -9.0875    3.7544   -9.0386 C   0  0  0  0  0  0  0  0  0  0  0  0
   -8.7703    5.5955   -9.9922 C   0  0  0  0  0  0  0  0  0  0  0  0
   -9.2211    2.7816   -7.9968 C   0  0  0  0  0  0  0  0  0  0  0  0
   -8.6730    5.2059  -16.2981 C   0  0  0  0  0  0  0  0  0  0  0  0
  -10.3821    4.5238  -13.0034 C   0  0  0  0  0  0  0  0  0  0  0  0
  -10.2419    4.4950  -14.5262 C   0  0  0  0  0  0  0  0  0  0  0  0
   -8.7998    7.2561  -11.7673 C   0  0  0  0  0  0  0  0  0  0  0  0
   -8.9103    6.5676  -14.1828 C   0  0  0  0  0  0  0  0  0  0  0  0
   -8.4432    6.1458  -12.7757 C   0  0  2  0  0  0  0  0  0  0  0  0
   -9.0163    4.7660  -12.3532 C   0  0  1  0  0  0  0  0  0  0  0  0
   -7.5479    6.2313  -18.7206 C   0  0  0  0  0  0  0  0  0  0  0  0
   -5.3283    6.0085  -17.5659 C   0  0  0  0  0  0  0  0  0  0  0  0
   -6.7245    3.9657  -17.9970 C   0  0  0  0  0  0  0  0  0  0  0  0
   -6.7490    5.4585  -17.6720 C   0  0  0  0  0  0  0  0  0  0  0  0
   -8.7889    5.0644   -8.7882 N   0  0  0  0  0  0  0  0  0  0  0  0
   -9.2448    3.4294  -10.3236 N   0  0  0  0  0  0  0  0  0  0  0  0
   -9.0452    4.6207  -10.9106 N   0  0  0  0  0  0  0  0  0  0  0  0
   -8.5133    6.8534  -10.4026 N   0  0  0  0  0  0  0  0  0  0  0  0
   -9.2166    5.4119  -15.0264 N   0  0  0  0  0  0  0  0  0  0  0  0
   -9.0376    3.1930   -6.6686 N   0  0  0  0  0  0  0  0  0  0  0  0
   -9.4793    1.5759   -8.2334 O   0  0  0  0  0  0  0  0  0  0  0  0
   -9.2846    4.6914  -17.2330 O   0  0  0  0  0  0  0  0  0  0  0  0
   -7.3773    5.6374  -16.3975 O   0  0  0  0  0  0  0  0  0  0  0  0
  -11.0896    5.3049  -12.7227 H   0  0  0  0  0  0  0  0  0  0  0  0
  -10.7989    3.5765  -12.6618 H   0  0  0  0  0  0  0  0  0  0  0  0
   -9.9647    3.4797  -14.8644 H   0  0  0  0  0  0  0  0  0  0  0  0
  -11.2189    4.7168  -14.9906 H   0  0  0  0  0  0  0  0  0  0  0  0
   -8.2268    8.1655  -11.9984 H   0  0  0  0  0  0  0  0  0  0  0  0
   -9.8623    7.5293  -11.8406 H   0  0  0  0  0  0  0  0  0  0  0  0
   -9.7619    7.2511  -14.1056 H   0  0  0  0  0  0  0  0  0  0  0  0
   -8.1057    7.1203  -14.6848 H   0  0  0  0  0  0  0  0  0  0  0  0
   -7.3471    6.0811  -12.8099 H   0  0  0  0  0  0  0  0  0  0  0  0
   -8.3122    3.9867  -12.7350 H   0  0  0  0  0  0  0  0  0  0  0  0
   -8.5683    5.8396  -18.7998 H   0  0  0  0  0  0  0  0  0  0  0  0
   -7.6026    7.2981  -18.4804 H   0  0  0  0  0  0  0  0  0  0  0  0
   -7.0972    6.1228  -19.7137 H   0  0  0  0  0  0  0  0  0  0  0  0
   -4.7515    5.4569  -16.8147 H   0  0  0  0  0  0  0  0  0  0  0  0
   -5.3382    7.0550  -17.2403 H   0  0  0  0  0  0  0  0  0  0  0  0
   -4.7992    5.9480  -18.5224 H   0  0  0  0  0  0  0  0  0  0  0  0
   -6.1515    3.4111  -17.2450 H   0  0  0  0  0  0  0  0  0  0  0  0
   -7.7346    3.5458  -18.0407 H   0  0  0  0  0  0  0  0  0  0  0  0
   -6.2300    3.7842  -18.9582 H   0  0  0  0  0  0  0  0  0  0  0  0
   -8.2084    7.5677   -9.7552 H   0  0  0  0  0  0  0  0  0  0  0  0
   -8.8161    4.1652   -6.4833 H   0  0  0  0  0  0  0  0  0  0  0  0
   -9.1189    2.5514   -5.8864 H   0  0  0  0  0  0  0  0  0  0  0  0
  1  3  1  0  0  0  0
  1 15  1  0  0  0  0
  1 16  2  0  0  0  0
  2 15  2  0  0  0  0
  2 17  1  0  0  0  0
  2 18  1  0  0  0  0
  3 20  1  0  0  0  0
  3 21  2  0  0  0  0
  4 19  1  0  0  0  0
  4 22  2  0  0  0  0
  4 23  1  0  0  0  0
  5  6  1  0  0  0  0
  5 10  1  0  0  0  0
  6 19  1  0  0  0  0
  7  9  1  0  0  0  0
  7 18  1  0  0  0  0
  8  9  1  0  0  0  0
  8 19  1  0  0  0  0
  9 10  1  0  0  0  0
 10 17  1  0  0  0  0
 11 14  1  0  0  0  0
 12 14  1  0  0  0  0
 13 14  1  0  0  0  0
 14 23  1  0  0  0  0
 16 17  1  0  0  0  0
  5 24  1  0  0  0  0
  5 25  1  0  0  0  0
  6 26  1  0  0  0  0
  6 27  1  0  0  0  0
  7 28  1  0  0  0  0
  7 29  1  0  0  0  0
  8 30  1  0  0  0  0
  8 31  1  0  0  0  0
  9 32  1  0  0  0  0
 10 33  1  0  0  0  0
 11 34  1  0  0  0  0
 11 35  1  0  0  0  0
 11 36  1  0  0  0  0
 12 37  1  0  0  0  0
 12 38  1  0  0  0  0
 12 39  1  0  0  0  0
 13 40  1  0  0  0  0
 13 41  1  0  0  0  0
 13 42  1  0  0  0  0
 18 43  1  0  0  0  0
 20 44  1  0  0  0  0
 20 45  1  0  0  0  0
M  END
> <id>
EN300-1118782

> <smiles>
CC(C)(C)OC(=O)N1CCC2C(CNC3=NC(=NN23)C(=O)N)C1

> <IUPAC Name>
tert-butyl 4-carbamoyl-2,3,5,7,11-pentaazatricyclo[7.4.0.0,2,6]trideca-3,5-diene-11-carboxylate

> <CAS>
1695019-92-1

> <URL>
https://www.enaminestore.com/catalog/EN300-1118782

> <ROCS_ShapeQuery>
_x0404_0B

> <ROCS_TanimotoCombo>
0.435 

> <ROCS_ShapeTanimoto>
0.387 

> <ROCS_ColorTanimoto>
0.048 

> <ROCS_RefTversky>
0.336 

> <ROCS_RefColorTversky>
0.054 

> <ROCS_RefTverskyCombo>
0.390 

> <ROCS_FitTversky>
1.656 

> <ROCS_FitColorTversky>
0.294 

> <ROCS_FitTverskyCombo>
1.950 

> <ROCS_ColorScore>
-3.922

> <ROCS_Overlap>
2240.685

> <ROCS_Rank>
319                 

$$$$
untitled-dbase-103100_666
  -OEChem-08222312023D

 56 59  0     0  0  0  0  0  0999 V2000
   -8.9671    3.9657   -9.0797 B   0  0  0  0  0  0  0  0  0  0  0  0
   -8.6832    3.9075  -11.6881 C   0  0  0  0  0  0  0  0  0  0  0  0
   -8.8585    4.6835  -10.6049 C   0  0  0  0  0  0  0  0  0  0  0  0
   -9.5173    6.3698  -14.3395 C   0  0  0  0  0  0  0  0  0  0  0  0
   -8.6007    4.4564  -13.0840 C   0  0  0  0  0  0  0  0  0  0  0  0
   -8.9450    6.1877  -10.6833 C   0  0  0  0  0  0  0  0  0  0  0  0
   -6.9912    5.6282  -16.9717 C   0  0  0  0  0  0  0  0  0  0  0  0
   -7.8098    5.0935  -18.1464 C   0  0  0  0  0  0  0  0  0  0  0  0
  -10.2240    5.0694  -19.0776 C   0  0  0  0  0  0  0  0  0  0  0  0
  -10.1434    3.9519  -18.0835 C   0  0  0  0  0  0  0  0  0  0  0  0
   -8.4950    6.7026  -12.0509 C   0  0  0  0  0  0  0  0  0  0  0  0
   -7.6438    5.2635  -15.6416 C   0  0  0  0  0  0  0  0  0  0  0  0
   -9.6940    6.1415  -16.7844 C   0  0  0  0  0  0  0  0  0  0  0  0
   -9.2991    5.1945  -17.8869 C   0  0  0  0  0  0  0  0  0  0  0  0
   -9.2103    2.3526   -7.4743 C   0  0  0  0  0  0  0  0  0  0  0  0
   -9.0009    3.7508   -6.8012 C   0  0  0  0  0  0  0  0  0  0  0  0
  -10.6607    1.8210   -7.4302 C   0  0  0  0  0  0  0  0  0  0  0  0
   -8.2868    1.2440   -6.9498 C   0  0  0  0  0  0  0  0  0  0  0  0
   -7.5969    3.9770   -6.1965 C   0  0  0  0  0  0  0  0  0  0  0  0
  -10.0387    4.1069   -5.7273 C   0  0  0  0  0  0  0  0  0  0  0  0
   -9.0194    5.8597  -13.1314 N   0  0  0  0  0  0  0  0  0  0  0  0
   -9.0013    5.8262  -15.5297 N   0  0  0  0  0  0  0  0  0  0  0  0
  -10.3563    7.2799  -14.3560 O   0  0  0  0  0  0  0  0  0  0  0  0
   -8.8831    2.5895   -8.8821 O   0  0  0  0  0  0  0  0  0  0  0  0
   -9.1485    4.6978   -7.9086 O   0  0  0  0  0  0  0  0  0  0  0  0
   -8.5808    2.8292  -11.5929 H   0  0  0  0  0  0  0  0  0  0  0  0
   -7.5647    4.3545  -13.4285 H   0  0  0  0  0  0  0  0  0  0  0  0
   -9.2566    3.8753  -13.7453 H   0  0  0  0  0  0  0  0  0  0  0  0
   -9.9729    6.5287  -10.5058 H   0  0  0  0  0  0  0  0  0  0  0  0
   -8.3127    6.6269   -9.9002 H   0  0  0  0  0  0  0  0  0  0  0  0
   -5.9746    5.2184  -17.0128 H   0  0  0  0  0  0  0  0  0  0  0  0
   -6.9013    6.7204  -17.0471 H   0  0  0  0  0  0  0  0  0  0  0  0
   -7.5271    5.6368  -19.0643 H   0  0  0  0  0  0  0  0  0  0  0  0
   -7.5519    4.0359  -18.3278 H   0  0  0  0  0  0  0  0  0  0  0  0
   -9.7892    4.9063  -20.0579 H   0  0  0  0  0  0  0  0  0  0  0  0
  -11.1302    5.6652  -19.0963 H   0  0  0  0  0  0  0  0  0  0  0  0
  -10.9921    3.7962  -17.4283 H   0  0  0  0  0  0  0  0  0  0  0  0
   -9.6513    3.0374  -18.3920 H   0  0  0  0  0  0  0  0  0  0  0  0
   -8.8734    7.7196  -12.2233 H   0  0  0  0  0  0  0  0  0  0  0  0
   -7.4002    6.7546  -12.0971 H   0  0  0  0  0  0  0  0  0  0  0  0
   -7.7405    4.1738  -15.5481 H   0  0  0  0  0  0  0  0  0  0  0  0
   -7.0209    5.6060  -14.8068 H   0  0  0  0  0  0  0  0  0  0  0  0
   -9.4807    7.1761  -17.0992 H   0  0  0  0  0  0  0  0  0  0  0  0
  -10.7809    6.0738  -16.5935 H   0  0  0  0  0  0  0  0  0  0  0  0
  -10.6957    0.8555   -7.9190 H   0  0  0  0  0  0  0  0  0  0  0  0
  -11.3068    2.5208   -7.9453 H   0  0  0  0  0  0  0  0  0  0  0  0
  -10.9679    1.7245   -6.3964 H   0  0  0  0  0  0  0  0  0  0  0  0
   -8.5034    0.3165   -7.4717 H   0  0  0  0  0  0  0  0  0  0  0  0
   -8.4536    1.1087   -5.8852 H   0  0  0  0  0  0  0  0  0  0  0  0
   -7.2518    1.5245   -7.1224 H   0  0  0  0  0  0  0  0  0  0  0  0
   -7.5582    4.9670   -5.7596 H   0  0  0  0  0  0  0  0  0  0  0  0
   -6.8579    3.8900   -6.9830 H   0  0  0  0  0  0  0  0  0  0  0  0
   -7.4179    3.2284   -5.4349 H   0  0  0  0  0  0  0  0  0  0  0  0
   -9.8141    5.0880   -5.3192 H   0  0  0  0  0  0  0  0  0  0  0  0
  -10.0048    3.3671   -4.9329 H   0  0  0  0  0  0  0  0  0  0  0  0
  -11.0296    4.1169   -6.1720 H   0  0  0  0  0  0  0  0  0  0  0  0
  1  3  1  0  0  0  0
  1 24  1  0  0  0  0
  1 25  1  0  0  0  0
  2  3  2  0  0  0  0
  2  5  1  0  0  0  0
  3  6  1  0  0  0  0
  4 21  1  0  0  0  0
  4 22  1  0  0  0  0
  4 23  2  0  0  0  0
  5 21  1  0  0  0  0
  6 11  1  0  0  0  0
  7  8  1  0  0  0  0
  7 12  1  0  0  0  0
  8 14  1  0  0  0  0
  9 10  1  0  0  0  0
  9 14  1  0  0  0  0
 10 14  1  0  0  0  0
 11 21  1  0  0  0  0
 12 22  1  0  0  0  0
 13 14  1  0  0  0  0
 13 22  1  0  0  0  0
 15 16  1  0  0  0  0
 15 17  1  0  0  0  0
 15 18  1  0  0  0  0
 15 24  1  0  0  0  0
 16 19  1  0  0  0  0
 16 20  1  0  0  0  0
 16 25  1  0  0  0  0
  2 26  1  0  0  0  0
  5 27  1  0  0  0  0
  5 28  1  0  0  0  0
  6 29  1  0  0  0  0
  6 30  1  0  0  0  0
  7 31  1  0  0  0  0
  7 32  1  0  0  0  0
  8 33  1  0  0  0  0
  8 34  1  0  0  0  0
  9 35  1  0  0  0  0
  9 36  1  0  0  0  0
 10 37  1  0  0  0  0
 10 38  1  0  0  0  0
 11 39  1  0  0  0  0
 11 40  1  0  0  0  0
 12 41  1  0  0  0  0
 12 42  1  0  0  0  0
 13 43  1  0  0  0  0
 13 44  1  0  0  0  0
 17 45  1  0  0  0  0
 17 46  1  0  0  0  0
 17 47  1  0  0  0  0
 18 48  1  0  0  0  0
 18 49  1  0  0  0  0
 18 50  1  0  0  0  0
 19 51  1  0  0  0  0
 19 52  1  0  0  0  0
 19 53  1  0  0  0  0
 20 54  1  0  0  0  0
 20 55  1  0  0  0  0
 20 56  1  0  0  0  0
M  END
> <id>
EN300-6735357

> <smiles>
CC1(C)OB(OC1(C)C)C2=CCN(CC2)C(=O)N3CCCC4(CC4)C3

> <IUPAC Name>
5-[4-(tetramethyl-1,3,2-dioxaborolan-2-yl)-1,2,3,6-tetrahydropyridine-1-carbonyl]-5-azaspiro[2.5]octane

> <URL>
https://www.enaminestore.com/catalog/EN300-6735357

> <ROCS_ShapeQuery>
_x0404_0B

> <ROCS_TanimotoCombo>
0.435 

> <ROCS_ShapeTanimoto>
0.378 

> <ROCS_ColorTanimoto>
0.057 

> <ROCS_RefTversky>
0.331 

> <ROCS_RefColorTversky>
0.061 

> <ROCS_RefTverskyCombo>
0.393 

> <ROCS_FitTversky>
1.586 

> <ROCS_FitColorTversky>
0.467 

> <ROCS_FitTverskyCombo>
2.053 

> <ROCS_ColorScore>
-4.430

> <ROCS_Overlap>
2213.377

> <ROCS_Rank>
320                 

$$$$
untitled-dbase-91005_2438
  -OEChem-08222312023D

 53 55  0     1  0  0  0  0  0999 V2000
   -8.9204    2.8932   -9.5982 C   0  0  0  0  0  0  0  0  0  0  0  0
   -9.1085    4.6785   -7.9813 C   0  0  0  0  0  0  0  0  0  0  0  0
   -9.0290    1.9534   -8.5732 C   0  0  0  0  0  0  0  0  0  0  0  0
   -9.2172    3.7387   -6.9563 C   0  0  0  0  0  0  0  0  0  0  0  0
   -8.9601    4.2558   -9.3022 C   0  0  0  0  0  0  0  0  0  0  0  0
   -9.1774    2.3762   -7.2523 C   0  0  0  0  0  0  0  0  0  0  0  0
   -8.8012    5.3067  -16.3586 C   0  0  0  0  0  0  0  0  0  0  0  0
  -10.1700    8.0089  -14.1080 C   0  0  0  0  0  0  0  0  0  0  0  0
   -7.5482    5.2255  -11.2397 C   0  0  0  0  0  0  0  0  0  0  0  0
   -9.9994    7.3890  -12.7182 C   0  0  0  0  0  0  0  0  0  0  0  0
   -7.8411    6.0284  -12.5077 C   0  0  0  0  0  0  0  0  0  0  0  0
   -9.8955    5.1286  -11.5285 C   0  0  0  0  0  0  0  0  0  0  0  0
   -9.1928    7.4660  -15.1377 C   0  0  0  0  0  0  0  0  0  0  0  0
   -9.7201    5.2665  -14.0561 C   0  0  0  0  0  0  0  0  0  0  0  0
   -8.8418    5.2786  -10.4178 C   0  0  1  0  0  0  0  0  0  0  0  0
   -9.3773    5.9668  -12.7282 C   0  0  1  0  0  0  0  0  0  0  0  0
   -8.4432    5.1382  -19.1918 C   0  0  0  0  0  0  0  0  0  0  0  0
   -6.2056    6.2052  -18.7872 C   0  0  0  0  0  0  0  0  0  0  0  0
   -6.7173    3.9568  -17.7918 C   0  0  0  0  0  0  0  0  0  0  0  0
   -7.2951    5.3116  -18.1986 C   0  0  0  0  0  0  0  0  0  0  0  0
   -9.2314    6.0039  -15.2245 N   0  0  0  0  0  0  0  0  0  0  0  0
   -9.2569    4.2237  -16.7210 O   0  0  0  0  0  0  0  0  0  0  0  0
   -8.9660    6.5801   -9.8383 O   0  0  0  0  0  0  0  0  0  0  0  0
   -7.8004    5.9621  -17.0271 O   0  0  0  0  0  0  0  0  0  0  0  0
   -9.3240    1.1023   -5.8640 Br  0  0  0  0  0  0  0  0  0  0  0  0
   -8.8051    2.5547  -10.6245 H   0  0  0  0  0  0  0  0  0  0  0  0
   -9.1396    5.7380   -7.7412 H   0  0  0  0  0  0  0  0  0  0  0  0
   -8.9951    0.8955   -8.8208 H   0  0  0  0  0  0  0  0  0  0  0  0
   -9.3326    4.0846   -5.9325 H   0  0  0  0  0  0  0  0  0  0  0  0
  -11.2044    7.8468  -14.4624 H   0  0  0  0  0  0  0  0  0  0  0  0
  -10.0526    9.1048  -14.0316 H   0  0  0  0  0  0  0  0  0  0  0  0
   -7.2825    4.1904  -11.5098 H   0  0  0  0  0  0  0  0  0  0  0  0
   -6.6904    5.6560  -10.7005 H   0  0  0  0  0  0  0  0  0  0  0  0
   -9.3604    8.0553  -12.1128 H   0  0  0  0  0  0  0  0  0  0  0  0
  -10.9772    7.3707  -12.2077 H   0  0  0  0  0  0  0  0  0  0  0  0
   -7.5108    7.0723  -12.3669 H   0  0  0  0  0  0  0  0  0  0  0  0
   -7.2740    5.6396  -13.3696 H   0  0  0  0  0  0  0  0  0  0  0  0
  -10.0212    4.0811  -11.8155 H   0  0  0  0  0  0  0  0  0  0  0  0
  -10.8671    5.4884  -11.1792 H   0  0  0  0  0  0  0  0  0  0  0  0
   -9.3948    7.9169  -16.1212 H   0  0  0  0  0  0  0  0  0  0  0  0
   -8.1600    7.7436  -14.8710 H   0  0  0  0  0  0  0  0  0  0  0  0
   -9.2459    4.2711  -14.1003 H   0  0  0  0  0  0  0  0  0  0  0  0
  -10.8029    5.0859  -14.1332 H   0  0  0  0  0  0  0  0  0  0  0  0
   -9.2274    4.4974  -18.7730 H   0  0  0  0  0  0  0  0  0  0  0  0
   -8.8892    6.1002  -19.4648 H   0  0  0  0  0  0  0  0  0  0  0  0
   -8.0971    4.6450  -20.1073 H   0  0  0  0  0  0  0  0  0  0  0  0
   -5.3798    6.3324  -18.0779 H   0  0  0  0  0  0  0  0  0  0  0  0
   -6.5933    7.2096  -18.9928 H   0  0  0  0  0  0  0  0  0  0  0  0
   -5.8029    5.7919  -19.7176 H   0  0  0  0  0  0  0  0  0  0  0  0
   -5.8937    4.0809  -17.0793 H   0  0  0  0  0  0  0  0  0  0  0  0
   -7.4770    3.3155  -17.3334 H   0  0  0  0  0  0  0  0  0  0  0  0
   -6.2989    3.4351  -18.6601 H   0  0  0  0  0  0  0  0  0  0  0  0
   -9.8385    6.6146   -9.4146 H   0  0  0  0  0  0  0  0  0  0  0  0
  1  3  1  0  0  0  0
  1  5  2  0  0  0  0
  2  4  2  0  0  0  0
  2  5  1  0  0  0  0
  3  6  2  0  0  0  0
  4  6  1  0  0  0  0
  5 15  1  0  0  0  0
  6 25  1  0  0  0  0
  7 21  1  0  0  0  0
  7 22  2  0  0  0  0
  7 24  1  0  0  0  0
  8 10  1  0  0  0  0
  8 13  1  0  0  0  0
  9 11  1  0  0  0  0
  9 15  1  0  0  0  0
 10 16  1  0  0  0  0
 11 16  1  0  0  0  0
 12 15  1  0  0  0  0
 12 16  1  0  0  0  0
 13 21  1  0  0  0  0
 14 16  1  0  0  0  0
 14 21  1  0  0  0  0
 15 23  1  0  0  0  0
 17 20  1  0  0  0  0
 18 20  1  0  0  0  0
 19 20  1  0  0  0  0
 20 24  1  0  0  0  0
  1 26  1  0  0  0  0
  2 27  1  0  0  0  0
  3 28  1  0  0  0  0
  4 29  1  0  0  0  0
  8 30  1  0  0  0  0
  8 31  1  0  0  0  0
  9 32  1  0  0  0  0
  9 33  1  0  0  0  0
 10 34  1  0  0  0  0
 10 35  1  0  0  0  0
 11 36  1  0  0  0  0
 11 37  1  0  0  0  0
 12 38  1  0  0  0  0
 12 39  1  0  0  0  0
 13 40  1  0  0  0  0
 13 41  1  0  0  0  0
 14 42  1  0  0  0  0
 14 43  1  0  0  0  0
 17 44  1  0  0  0  0
 17 45  1  0  0  0  0
 17 46  1  0  0  0  0
 18 47  1  0  0  0  0
 18 48  1  0  0  0  0
 18 49  1  0  0  0  0
 19 50  1  0  0  0  0
 19 51  1  0  0  0  0
 19 52  1  0  0  0  0
 23 53  1  0  0  0  0
M  END
> <id>
EN300-7428804

> <smiles>
CC(C)(C)OC(=O)N1CCCC2(CCC(O)(C2)C=3C=CC(Br)=CC3)C1

> <IUPAC Name>
tert-butyl 2-(4-bromophenyl)-2-hydroxy-7-azaspiro[4.5]decane-7-carboxylate

> <CAS>
2309463-83-8

> <URL>
https://www.enaminestore.com/catalog/EN300-7428804

> <ROCS_ShapeQuery>
_x0404_0B

> <ROCS_TanimotoCombo>
0.435 

> <ROCS_ShapeTanimoto>
0.386 

> <ROCS_ColorTanimoto>
0.049 

> <ROCS_RefTversky>
0.337 

> <ROCS_RefColorTversky>
0.054 

> <ROCS_RefTverskyCombo>
0.390 

> <ROCS_FitTversky>
1.615 

> <ROCS_FitColorTversky>
0.341 

> <ROCS_FitTverskyCombo>
1.956 

> <ROCS_ColorScore>
-3.877

> <ROCS_Overlap>
2249.363

> <ROCS_Rank>
321                 

$$$$
untitled-dbase-106441_174
  -OEChem-08222312023D

 53 55  0     1  0  0  0  0  0999 V2000
   -7.5753    3.3597  -13.9933 C   0  0  0  0  0  0  0  0  0  0  0  0
   -8.8083    6.3817   -9.6079 C   0  0  0  0  0  0  0  0  0  0  0  0
   -8.1756    5.4076  -10.4034 C   0  0  0  0  0  0  0  0  0  0  0  0
   -8.2583    4.2534   -9.6634 C   0  0  0  0  0  0  0  0  0  0  0  0
   -7.5558    5.5501  -11.7270 C   0  0  0  0  0  0  0  0  0  0  0  0
   -9.9492    4.6600  -17.3815 C   0  0  0  0  0  0  0  0  0  0  0  0
  -10.1178    6.6400  -13.9940 C   0  0  0  0  0  0  0  0  0  0  0  0
   -8.7559    4.8751  -18.3005 C   0  0  0  0  0  0  0  0  0  0  0  0
   -9.4707    4.2822  -15.9809 C   0  0  0  0  0  0  0  0  0  0  0  0
   -9.0864    6.6765  -15.1253 C   0  0  0  0  0  0  0  0  0  0  0  0
   -9.7938    5.6039  -12.9235 C   0  0  0  0  0  0  0  0  0  0  0  0
   -7.7642    5.8494  -17.6865 C   0  0  0  0  0  0  0  0  0  0  0  0
   -7.7311    4.8240  -14.0919 C   0  0  1  0  0  0  0  0  0  0  0  0
   -8.4424    5.2954  -15.4129 C   0  0  1  0  0  0  0  0  0  0  0  0
   -7.7833    2.8829   -9.9358 C   0  0  0  0  0  0  0  0  0  0  0  0
   -7.9410    3.1244   -6.8169 C   0  0  0  0  0  0  0  0  0  0  0  0
  -10.1562    2.5797   -7.9012 C   0  0  0  0  0  0  0  0  0  0  0  0
   -9.9795    4.4263   -6.2494 C   0  0  0  0  0  0  0  0  0  0  0  0
   -9.2367    3.7203   -7.4107 C   0  0  0  0  0  0  0  0  0  0  0  0
   -7.4529    2.2085  -13.9157 N   0  0  0  0  0  0  0  0  0  0  0  0
   -9.2597    5.8892   -8.4514 N   0  0  0  0  0  0  0  0  0  0  0  0
   -8.9104    4.5930   -8.5147 N   0  0  0  0  0  0  0  0  0  0  0  0
   -8.3547    5.3495  -12.8615 N   0  0  0  0  0  0  0  0  0  0  0  0
   -6.3632    5.8532  -11.7390 O   0  0  0  0  0  0  0  0  0  0  0  0
   -7.3731    5.4500  -16.3753 O   0  0  0  0  0  0  0  0  0  0  0  0
   -8.9612    7.4300   -9.8219 H   0  0  0  0  0  0  0  0  0  0  0  0
  -10.5562    5.5697  -17.3396 H   0  0  0  0  0  0  0  0  0  0  0  0
  -10.5893    3.8674  -17.7811 H   0  0  0  0  0  0  0  0  0  0  0  0
  -10.1953    7.6366  -13.5280 H   0  0  0  0  0  0  0  0  0  0  0  0
  -11.1128    6.4274  -14.4174 H   0  0  0  0  0  0  0  0  0  0  0  0
   -8.2583    3.9093  -18.4601 H   0  0  0  0  0  0  0  0  0  0  0  0
   -9.0886    5.2367  -19.2806 H   0  0  0  0  0  0  0  0  0  0  0  0
  -10.3351    4.1836  -15.3180 H   0  0  0  0  0  0  0  0  0  0  0  0
   -8.9983    3.2955  -16.0507 H   0  0  0  0  0  0  0  0  0  0  0  0
   -9.5712    7.0592  -16.0406 H   0  0  0  0  0  0  0  0  0  0  0  0
   -8.3256    7.4286  -14.8633 H   0  0  0  0  0  0  0  0  0  0  0  0
  -10.1718    5.9473  -11.9599 H   0  0  0  0  0  0  0  0  0  0  0  0
  -10.2883    4.6568  -13.1503 H   0  0  0  0  0  0  0  0  0  0  0  0
   -6.8569    5.8811  -18.3013 H   0  0  0  0  0  0  0  0  0  0  0  0
   -8.1625    6.8701  -17.6683 H   0  0  0  0  0  0  0  0  0  0  0  0
   -6.6904    5.2322  -14.1463 H   0  0  0  0  0  0  0  0  0  0  0  0
   -6.7568    2.7362   -9.5617 H   0  0  0  0  0  0  0  0  0  0  0  0
   -8.4248    2.1205   -9.4614 H   0  0  0  0  0  0  0  0  0  0  0  0
   -7.7829    2.6517  -11.0149 H   0  0  0  0  0  0  0  0  0  0  0  0
   -7.2696    3.9142   -6.4607 H   0  0  0  0  0  0  0  0  0  0  0  0
   -8.1396    2.4659   -5.9645 H   0  0  0  0  0  0  0  0  0  0  0  0
   -7.3992    2.5369   -7.5673 H   0  0  0  0  0  0  0  0  0  0  0  0
  -11.0904    2.9556   -8.3317 H   0  0  0  0  0  0  0  0  0  0  0  0
   -9.6650    1.9818   -8.6775 H   0  0  0  0  0  0  0  0  0  0  0  0
  -10.4208    1.9070   -7.0771 H   0  0  0  0  0  0  0  0  0  0  0  0
  -10.9167    4.8771   -6.5978 H   0  0  0  0  0  0  0  0  0  0  0  0
  -10.2409    3.7231   -5.4502 H   0  0  0  0  0  0  0  0  0  0  0  0
   -9.3774    5.2335   -5.8164 H   0  0  0  0  0  0  0  0  0  0  0  0
  1 13  1  0  0  0  0
  1 20  3  0  0  0  0
  2  3  1  0  0  0  0
  2 21  2  0  0  0  0
  3  4  2  0  0  0  0
  3  5  1  0  0  0  0
  4 15  1  0  0  0  0
  4 22  1  0  0  0  0
  5 23  1  0  0  0  0
  5 24  2  0  0  0  0
  6  8  1  0  0  0  0
  6  9  1  0  0  0  0
  7 10  1  0  0  0  0
  7 11  1  0  0  0  0
  8 12  1  0  0  0  0
  9 14  1  0  0  0  0
 10 14  1  0  0  0  0
 11 23  1  0  0  0  0
 12 25  1  0  0  0  0
 13 14  1  0  0  0  0
 13 23  1  0  0  0  0
 14 25  1  0  0  0  0
 16 19  1  0  0  0  0
 17 19  1  0  0  0  0
 18 19  1  0  0  0  0
 19 22  1  0  0  0  0
 21 22  1  0  0  0  0
  2 26  1  0  0  0  0
  6 27  1  0  0  0  0
  6 28  1  0  0  0  0
  7 29  1  0  0  0  0
  7 30  1  0  0  0  0
  8 31  1  0  0  0  0
  8 32  1  0  0  0  0
  9 33  1  0  0  0  0
  9 34  1  0  0  0  0
 10 35  1  0  0  0  0
 10 36  1  0  0  0  0
 11 37  1  0  0  0  0
 11 38  1  0  0  0  0
 12 39  1  0  0  0  0
 12 40  1  0  0  0  0
 13 41  1  0  0  0  0
 15 42  1  0  0  0  0
 15 43  1  0  0  0  0
 15 44  1  0  0  0  0
 16 45  1  0  0  0  0
 16 46  1  0  0  0  0
 16 47  1  0  0  0  0
 17 48  1  0  0  0  0
 17 49  1  0  0  0  0
 17 50  1  0  0  0  0
 18 51  1  0  0  0  0
 18 52  1  0  0  0  0
 18 53  1  0  0  0  0
M  END
> <id>
EN300-26681335

> <smiles>
CC1=C(C=NN1C(C)(C)C)C(=O)N2CCCC3(CCCCO3)C2C#N

> <IUPAC Name>
8-(1-tert-butyl-5-methyl-1H-pyrazole-4-carbonyl)-1-oxa-8-azaspiro[5.5]undecane-7-carbonitrile

> <CAS>
2093831-37-7

> <URL>
https://www.enaminestore.com/catalog/EN300-26681335

> <ROCS_ShapeQuery>
_x0404_0B

> <ROCS_TanimotoCombo>
0.435 

> <ROCS_ShapeTanimoto>
0.357 

> <ROCS_ColorTanimoto>
0.078 

> <ROCS_RefTversky>
0.319 

> <ROCS_RefColorTversky>
0.084 

> <ROCS_RefTverskyCombo>
0.402 

> <ROCS_FitTversky>
1.509 

> <ROCS_FitColorTversky>
0.530 

> <ROCS_FitTverskyCombo>
2.039 

> <ROCS_ColorScore>
-6.032

> <ROCS_Overlap>
2129.034

> <ROCS_Rank>
322                 

$$$$
untitled-dbase-6259_2
  -OEChem-08222312023D

 38 41  0     0  0  0  0  0  0999 V2000
   -9.3319    4.0834  -16.3154 C   0  0  0  0  0  0  0  0  0  0  0  0
   -9.4944    4.3472  -14.9554 C   0  0  0  0  0  0  0  0  0  0  0  0
   -7.4041    5.5586  -14.9406 C   0  0  0  0  0  0  0  0  0  0  0  0
   -8.8575    4.5845  -10.6052 C   0  0  0  0  0  0  0  0  0  0  0  0
   -8.9338    3.7562   -9.4670 C   0  0  0  0  0  0  0  0  0  0  0  0
   -8.2054    4.5571  -16.9880 C   0  0  0  0  0  0  0  0  0  0  0  0
   -7.2415    5.2947  -16.3007 C   0  0  0  0  0  0  0  0  0  0  0  0
   -8.5305    5.0849  -14.2680 C   0  0  0  0  0  0  0  0  0  0  0  0
   -8.9647    4.4818   -8.3082 C   0  0  0  0  0  0  0  0  0  0  0  0
   -8.8368    5.9225  -10.2436 C   0  0  0  0  0  0  0  0  0  0  0  0
   -8.7864    4.2271  -12.0102 C   0  0  0  0  0  0  0  0  0  0  0  0
   -8.7334    6.6821  -12.3471 C   0  0  0  0  0  0  0  0  0  0  0  0
   -8.9819    2.3001   -9.1882 C   0  0  0  0  0  0  0  0  0  0  0  0
   -9.0388    3.6572   -7.0805 C   0  0  0  0  0  0  0  0  0  0  0  0
   -9.4000    2.2646   -7.6840 C   0  0  0  0  0  0  0  0  0  0  0  0
   -8.0529    4.2613  -18.4440 C   0  0  0  0  0  0  0  0  0  0  0  0
   -6.0285    5.8138  -17.0005 C   0  0  0  0  0  0  0  0  0  0  0  0
   -8.7878    6.9861  -11.0822 N   0  0  0  0  0  0  0  0  0  0  0  0
   -8.6985    5.3586  -12.8675 N   0  0  0  0  0  0  0  0  0  0  0  0
   -8.7603    3.0505  -12.3603 O   0  0  0  0  0  0  0  0  0  0  0  0
   -8.9056    6.1372   -8.5318 S   0  0  0  0  0  0  0  0  0  0  0  0
   -8.8140    8.0546  -13.4523 S   0  0  0  0  0  0  0  0  0  0  0  0
  -10.0880    3.5068  -16.8420 H   0  0  0  0  0  0  0  0  0  0  0  0
  -10.3757    3.9719  -14.4418 H   0  0  0  0  0  0  0  0  0  0  0  0
   -6.6517    6.1341  -14.4053 H   0  0  0  0  0  0  0  0  0  0  0  0
   -9.7433    1.8157   -9.8085 H   0  0  0  0  0  0  0  0  0  0  0  0
   -8.0189    1.8057   -9.3416 H   0  0  0  0  0  0  0  0  0  0  0  0
   -8.0971    3.6171   -6.5267 H   0  0  0  0  0  0  0  0  0  0  0  0
   -9.8395    4.0093   -6.4223 H   0  0  0  0  0  0  0  0  0  0  0  0
  -10.4578    2.0166   -7.5527 H   0  0  0  0  0  0  0  0  0  0  0  0
   -8.8145    1.4908   -7.1699 H   0  0  0  0  0  0  0  0  0  0  0  0
   -8.5157    5.0539  -19.0431 H   0  0  0  0  0  0  0  0  0  0  0  0
   -6.9951    4.1838  -18.7240 H   0  0  0  0  0  0  0  0  0  0  0  0
   -8.5233    3.3053  -18.7055 H   0  0  0  0  0  0  0  0  0  0  0  0
   -5.2171    5.0785  -16.9501 H   0  0  0  0  0  0  0  0  0  0  0  0
   -6.2408    6.0285  -18.0551 H   0  0  0  0  0  0  0  0  0  0  0  0
   -5.6803    6.7505  -16.5478 H   0  0  0  0  0  0  0  0  0  0  0  0
   -8.9103    8.9958  -12.5093 H   0  0  0  0  0  0  0  0  0  0  0  0
  1  2  1  0  0  0  0
  1  6  2  0  0  0  0
  2  8  2  0  0  0  0
  3  7  2  0  0  0  0
  3  8  1  0  0  0  0
  4  5  1  0  0  0  0
  4 10  2  0  0  0  0
  4 11  1  0  0  0  0
  5  9  2  0  0  0  0
  5 13  1  0  0  0  0
  6  7  1  0  0  0  0
  6 16  1  0  0  0  0
  7 17  1  0  0  0  0
  8 19  1  0  0  0  0
  9 14  1  0  0  0  0
  9 21  1  0  0  0  0
 10 18  1  0  0  0  0
 10 21  1  0  0  0  0
 11 19  1  0  0  0  0
 11 20  2  0  0  0  0
 12 18  2  0  0  0  0
 12 19  1  0  0  0  0
 12 22  1  0  0  0  0
 13 15  1  0  0  0  0
 14 15  1  0  0  0  0
  1 23  1  0  0  0  0
  2 24  1  0  0  0  0
  3 25  1  0  0  0  0
 13 26  1  0  0  0  0
 13 27  1  0  0  0  0
 14 28  1  0  0  0  0
 14 29  1  0  0  0  0
 15 30  1  0  0  0  0
 15 31  1  0  0  0  0
 16 32  1  0  0  0  0
 16 33  1  0  0  0  0
 16 34  1  0  0  0  0
 17 35  1  0  0  0  0
 17 36  1  0  0  0  0
 17 37  1  0  0  0  0
 22 38  1  0  0  0  0
M  END
> <id>
EN300-07289

> <smiles>
CC=1C=CC(=CC1C)N2C(S)=NC=3SC=4CCCC4C3C2=O

> <MDLNUMBER>
MFCD03945909

> <IUPAC Name>
11-(3,4-dimethylphenyl)-10-sulfanyl-7-thia-9,11-diazatricyclo[6.4.0.0,2,6]dodeca-1(8),2(6),9-trien-12-one

> <CAS>
590355-82-1

> <URL>
https://www.enaminestore.com/catalog/EN300-07289

> <ROCS_ShapeQuery>
_x0404_0B

> <ROCS_TanimotoCombo>
0.435 

> <ROCS_ShapeTanimoto>
0.368 

> <ROCS_ColorTanimoto>
0.066 

> <ROCS_RefTversky>
0.322 

> <ROCS_RefColorTversky>
0.071 

> <ROCS_RefTverskyCombo>
0.393 

> <ROCS_FitTversky>
1.650 

> <ROCS_FitColorTversky>
0.492 

> <ROCS_FitTverskyCombo>
2.142 

> <ROCS_ColorScore>
-5.152

> <ROCS_Overlap>
2147.048

> <ROCS_Rank>
323                 

$$$$
untitled-dbase-39264_1836
  -OEChem-08222312023D

 61 63  0     1  0  0  0  0  0999 V2000
   -7.8461    4.6800  -11.2777 C   0  0  0  0  0  0  0  0  0  0  0  0
   -7.6261    4.7684  -12.6510 C   0  0  0  0  0  0  0  0  0  0  0  0
   -9.2659    6.6279  -11.3867 C   0  0  0  0  0  0  0  0  0  0  0  0
   -8.6675    5.6087  -10.6454 C   0  0  0  0  0  0  0  0  0  0  0  0
   -9.0535    6.7284  -12.7714 C   0  0  0  0  0  0  0  0  0  0  0  0
   -8.2331    5.7826  -13.3989 C   0  0  0  0  0  0  0  0  0  0  0  0
   -8.9009    5.5161   -9.2136 C   0  0  0  0  0  0  0  0  0  0  0  0
   -7.6210    5.2933  -18.8480 C   0  0  0  0  0  0  0  0  0  0  0  0
   -9.9877    5.8187  -16.0511 C   0  0  0  0  0  0  0  0  0  0  0  0
   -9.0457    7.9709  -14.9300 C   0  0  0  0  0  0  0  0  0  0  0  0
   -9.4362    4.9042  -17.1387 C   0  0  0  0  0  0  0  0  0  0  0  0
   -7.9789    6.8034  -16.8939 C   0  0  0  0  0  0  0  0  0  0  0  0
   -9.6970    7.8485  -13.5487 C   0  0  1  0  0  0  0  0  0  0  0  0
   -8.7569    6.6144  -15.5800 C   0  0  2  0  0  0  0  0  0  0  0  0
  -10.3951    3.4045   -8.6972 C   0  0  0  0  0  0  0  0  0  0  0  0
   -8.3024    2.1230   -8.1610 C   0  0  0  0  0  0  0  0  0  0  0  0
   -9.1723    3.8323   -6.5394 C   0  0  0  0  0  0  0  0  0  0  0  0
   -5.2476    4.5577  -20.2600 C   0  0  0  0  0  0  0  0  0  0  0  0
   -4.3283    6.7662  -19.4940 C   0  0  0  0  0  0  0  0  0  0  0  0
   -4.9682    5.0234  -17.8024 C   0  0  0  0  0  0  0  0  0  0  0  0
   -9.0294    3.4579   -8.0139 C   0  0  0  0  0  0  0  0  0  0  0  0
   -5.2912    5.6264  -19.1688 C   0  0  0  0  0  0  0  0  0  0  0  0
   -8.3117    5.6364  -17.6982 N   0  0  0  0  0  0  0  0  0  0  0  0
  -11.1495    7.6834  -13.6303 N   0  0  0  0  0  0  0  0  0  0  0  0
   -9.6145    6.2957   -8.5686 O   0  0  0  0  0  0  0  0  0  0  0  0
   -7.8807    4.3135  -19.5429 O   0  0  0  0  0  0  0  0  0  0  0  0
   -7.9390    5.7851  -14.7361 O   0  0  0  0  0  0  0  0  0  0  0  0
   -8.2341    4.4560   -8.6626 O   0  0  0  0  0  0  0  0  0  0  0  0
   -6.6122    6.1774  -19.1232 O   0  0  0  0  0  0  0  0  0  0  0  0
   -7.3630    3.8885  -10.7099 H   0  0  0  0  0  0  0  0  0  0  0  0
   -6.9677    4.0492  -13.1326 H   0  0  0  0  0  0  0  0  0  0  0  0
   -9.9046    7.3483  -10.8817 H   0  0  0  0  0  0  0  0  0  0  0  0
  -10.7445    6.4853  -16.4846 H   0  0  0  0  0  0  0  0  0  0  0  0
  -10.4499    5.2362  -15.2462 H   0  0  0  0  0  0  0  0  0  0  0  0
   -9.7164    8.5413  -15.6060 H   0  0  0  0  0  0  0  0  0  0  0  0
   -8.1177    8.5727  -14.8551 H   0  0  0  0  0  0  0  0  0  0  0  0
   -9.0505    3.9673  -16.7222 H   0  0  0  0  0  0  0  0  0  0  0  0
  -10.1707    4.6676  -17.9141 H   0  0  0  0  0  0  0  0  0  0  0  0
   -8.3174    7.6857  -17.4508 H   0  0  0  0  0  0  0  0  0  0  0  0
   -6.8925    6.8568  -16.7623 H   0  0  0  0  0  0  0  0  0  0  0  0
   -9.5012    8.7754  -12.9694 H   0  0  0  0  0  0  0  0  0  0  0  0
  -10.9202    4.3609   -8.5939 H   0  0  0  0  0  0  0  0  0  0  0  0
  -10.3039    3.1713   -9.7631 H   0  0  0  0  0  0  0  0  0  0  0  0
  -11.0364    2.6478   -8.2310 H   0  0  0  0  0  0  0  0  0  0  0  0
   -7.3220    2.1568   -7.6721 H   0  0  0  0  0  0  0  0  0  0  0  0
   -8.1133    1.8957   -9.2164 H   0  0  0  0  0  0  0  0  0  0  0  0
   -8.8782    1.2993   -7.7267 H   0  0  0  0  0  0  0  0  0  0  0  0
   -8.1929    3.8707   -6.0490 H   0  0  0  0  0  0  0  0  0  0  0  0
   -9.6591    4.8052   -6.4156 H   0  0  0  0  0  0  0  0  0  0  0  0
   -9.7584    3.0787   -6.0010 H   0  0  0  0  0  0  0  0  0  0  0  0
   -5.9374    3.7378  -20.0303 H   0  0  0  0  0  0  0  0  0  0  0  0
   -5.5115    4.9702  -21.2393 H   0  0  0  0  0  0  0  0  0  0  0  0
   -4.2491    4.1112  -20.3302 H   0  0  0  0  0  0  0  0  0  0  0  0
   -4.3564    7.5353  -18.7136 H   0  0  0  0  0  0  0  0  0  0  0  0
   -4.6136    7.2637  -20.4280 H   0  0  0  0  0  0  0  0  0  0  0  0
   -3.2980    6.4092  -19.5920 H   0  0  0  0  0  0  0  0  0  0  0  0
   -4.9995    5.7898  -17.0195 H   0  0  0  0  0  0  0  0  0  0  0  0
   -5.6720    4.2282  -17.5359 H   0  0  0  0  0  0  0  0  0  0  0  0
   -3.9535    4.6092  -17.7893 H   0  0  0  0  0  0  0  0  0  0  0  0
  -11.5009    7.6110  -12.7066 H   0  0  0  0  0  0  0  0  0  0  0  0
  -11.5212    8.4788  -14.0897 H   0  0  0  0  0  0  0  0  0  0  0  0
  1  2  1  0  0  0  0
  1  4  2  0  0  0  0
  2  6  2  0  0  0  0
  3  4  1  0  0  0  0
  3  5  2  0  0  0  0
  4  7  1  0  0  0  0
  5  6  1  0  0  0  0
  5 13  1  0  0  0  0
  6 27  1  0  0  0  0
  7 25  2  0  0  0  0
  7 28  1  0  0  0  0
  8 23  1  0  0  0  0
  8 26  2  0  0  0  0
  8 29  1  0  0  0  0
  9 11  1  0  0  0  0
  9 14  1  0  0  0  0
 10 13  1  0  0  0  0
 10 14  1  0  0  0  0
 11 23  1  0  0  0  0
 12 14  1  0  0  0  0
 12 23  1  0  0  0  0
 13 24  1  0  0  0  0
 14 27  1  0  0  0  0
 15 21  1  0  0  0  0
 16 21  1  0  0  0  0
 17 21  1  0  0  0  0
 18 22  1  0  0  0  0
 19 22  1  0  0  0  0
 20 22  1  0  0  0  0
 21 28  1  0  0  0  0
 22 29  1  0  0  0  0
  1 30  1  0  0  0  0
  2 31  1  0  0  0  0
  3 32  1  0  0  0  0
  9 33  1  0  0  0  0
  9 34  1  0  0  0  0
 10 35  1  0  0  0  0
 10 36  1  0  0  0  0
 11 37  1  0  0  0  0
 11 38  1  0  0  0  0
 12 39  1  0  0  0  0
 12 40  1  0  0  0  0
 13 41  1  0  0  0  0
 15 42  1  0  0  0  0
 15 43  1  0  0  0  0
 15 44  1  0  0  0  0
 16 45  1  0  0  0  0
 16 46  1  0  0  0  0
 16 47  1  0  0  0  0
 17 48  1  0  0  0  0
 17 49  1  0  0  0  0
 17 50  1  0  0  0  0
 18 51  1  0  0  0  0
 18 52  1  0  0  0  0
 18 53  1  0  0  0  0
 19 54  1  0  0  0  0
 19 55  1  0  0  0  0
 19 56  1  0  0  0  0
 20 57  1  0  0  0  0
 20 58  1  0  0  0  0
 20 59  1  0  0  0  0
 24 60  1  0  0  0  0
 24 61  1  0  0  0  0
M  END
> <id>
EN300-1129058

> <smiles>
CC(C)(C)OC(=O)N1CCC2(C1)CC(N)C=3C=C(C=CC3O2)C(=O)OC(C)(C)C

> <IUPAC Name>
1',6-di-tert-butyl 4-amino-3,4-dihydrospiro[1-benzopyran-2,3'-pyrrolidine]-1',6-dicarboxylate

> <CAS>
2138160-06-0

> <URL>
https://www.enaminestore.com/catalog/EN300-1129058

> <ROCS_ShapeQuery>
_x0404_0B

> <ROCS_TanimotoCombo>
0.435 

> <ROCS_ShapeTanimoto>
0.384 

> <ROCS_ColorTanimoto>
0.051 

> <ROCS_RefTversky>
0.343 

> <ROCS_RefColorTversky>
0.057 

> <ROCS_RefTverskyCombo>
0.401 

> <ROCS_FitTversky>
1.441 

> <ROCS_FitColorTversky>
0.312 

> <ROCS_FitTverskyCombo>
1.753 

> <ROCS_ColorScore>
-4.149

> <ROCS_Overlap>
2296.958

> <ROCS_Rank>
324                 

$$$$
untitled-dbase-101561_3383
  -OEChem-08222312023D

 47 49  0     1  0  0  0  0  0999 V2000
   -9.6207    3.6607  -17.9301 C   0  0  0  0  0  0  0  0  0  0  0  0
   -9.7827    4.2840  -16.6928 C   0  0  0  0  0  0  0  0  0  0  0  0
   -8.5328    3.9889  -18.7392 C   0  0  0  0  0  0  0  0  0  0  0  0
   -7.7692    5.5637  -17.0737 C   0  0  0  0  0  0  0  0  0  0  0  0
   -8.8570    5.2355  -16.2646 C   0  0  0  0  0  0  0  0  0  0  0  0
   -7.6071    4.9404  -18.3110 C   0  0  0  0  0  0  0  0  0  0  0  0
   -9.1935    5.2528   -9.0953 C   0  0  0  0  0  0  0  0  0  0  0  0
  -10.4853    6.0751  -14.4379 C   0  0  0  0  0  0  0  0  0  0  0  0
  -10.3581    6.4184  -12.9571 C   0  0  0  0  0  0  0  0  0  0  0  0
   -8.3795    5.1503  -13.7432 C   0  0  0  0  0  0  0  0  0  0  0  0
   -8.3368    6.2150  -11.3348 C   0  0  0  0  0  0  0  0  0  0  0  0
   -9.5020    4.4285  -11.5062 C   0  0  0  0  0  0  0  0  0  0  0  0
   -9.0339    5.9132  -14.9183 C   0  0  1  0  0  0  0  0  0  0  0  0
   -9.1608    5.5826  -12.4893 C   0  0  0  0  0  0  0  0  0  0  0  0
   -8.3036    3.9704   -6.9952 C   0  0  0  0  0  0  0  0  0  0  0  0
  -10.4188    2.6158   -6.9823 C   0  0  0  0  0  0  0  0  0  0  0  0
   -8.6552    2.1644   -8.7126 C   0  0  0  0  0  0  0  0  0  0  0  0
   -9.3298    3.2348   -7.8558 C   0  0  0  0  0  0  0  0  0  0  0  0
   -9.0382    5.3058  -10.4520 N   0  0  0  0  0  0  0  0  0  0  0  0
   -8.7056    6.0632   -8.3124 O   0  0  0  0  0  0  0  0  0  0  0  0
   -8.4316    7.2054  -15.0471 O   0  0  0  0  0  0  0  0  0  0  0  0
   -9.9601    4.1831   -8.7239 O   0  0  0  0  0  0  0  0  0  0  0  0
   -6.1335    5.3847  -19.4078 Br  0  0  0  0  0  0  0  0  0  0  0  0
  -10.3415    2.9199  -18.2634 H   0  0  0  0  0  0  0  0  0  0  0  0
  -10.6333    4.0219  -16.0691 H   0  0  0  0  0  0  0  0  0  0  0  0
   -8.4213    3.4940  -19.7005 H   0  0  0  0  0  0  0  0  0  0  0  0
   -7.0514    6.3066  -16.7331 H   0  0  0  0  0  0  0  0  0  0  0  0
  -11.0426    5.1362  -14.5509 H   0  0  0  0  0  0  0  0  0  0  0  0
  -11.0235    6.8622  -14.9765 H   0  0  0  0  0  0  0  0  0  0  0  0
  -10.1522    7.4898  -12.8476 H   0  0  0  0  0  0  0  0  0  0  0  0
  -11.2811    6.2002  -12.4108 H   0  0  0  0  0  0  0  0  0  0  0  0
   -8.4797    4.0671  -13.8882 H   0  0  0  0  0  0  0  0  0  0  0  0
   -7.3123    5.3840  -13.6586 H   0  0  0  0  0  0  0  0  0  0  0  0
   -7.2591    6.0261  -11.3497 H   0  0  0  0  0  0  0  0  0  0  0  0
   -8.5270    7.2716  -11.1294 H   0  0  0  0  0  0  0  0  0  0  0  0
  -10.5574    4.1557  -11.4284 H   0  0  0  0  0  0  0  0  0  0  0  0
   -8.8889    3.5254  -11.5862 H   0  0  0  0  0  0  0  0  0  0  0  0
   -7.5202    4.4161   -7.6185 H   0  0  0  0  0  0  0  0  0  0  0  0
   -8.7695    4.7640   -6.4019 H   0  0  0  0  0  0  0  0  0  0  0  0
   -7.7985    3.2784   -6.3117 H   0  0  0  0  0  0  0  0  0  0  0  0
  -11.1573    2.0870   -7.5957 H   0  0  0  0  0  0  0  0  0  0  0  0
  -10.9691    3.3910   -6.4367 H   0  0  0  0  0  0  0  0  0  0  0  0
  -10.0021    1.9104   -6.2562 H   0  0  0  0  0  0  0  0  0  0  0  0
   -9.3910    1.6366   -9.3300 H   0  0  0  0  0  0  0  0  0  0  0  0
   -7.8958    2.5958   -9.3729 H   0  0  0  0  0  0  0  0  0  0  0  0
   -8.1781    1.4048   -8.0828 H   0  0  0  0  0  0  0  0  0  0  0  0
   -8.9054    7.6662  -15.7584 H   0  0  0  0  0  0  0  0  0  0  0  0
  1  2  1  0  0  0  0
  1  3  2  0  0  0  0
  2  5  2  0  0  0  0
  3  6  1  0  0  0  0
  4  5  1  0  0  0  0
  4  6  2  0  0  0  0
  5 13  1  0  0  0  0
  6 23  1  0  0  0  0
  7 19  1  0  0  0  0
  7 20  2  0  0  0  0
  7 22  1  0  0  0  0
  8  9  1  0  0  0  0
  8 13  1  0  0  0  0
  9 14  1  0  0  0  0
 10 13  1  0  0  0  0
 10 14  1  0  0  0  0
 11 14  1  0  0  0  0
 11 19  1  0  0  0  0
 12 14  1  0  0  0  0
 12 19  1  0  0  0  0
 13 21  1  0  0  0  0
 15 18  1  0  0  0  0
 16 18  1  0  0  0  0
 17 18  1  0  0  0  0
 18 22  1  0  0  0  0
  1 24  1  0  0  0  0
  2 25  1  0  0  0  0
  3 26  1  0  0  0  0
  4 27  1  0  0  0  0
  8 28  1  0  0  0  0
  8 29  1  0  0  0  0
  9 30  1  0  0  0  0
  9 31  1  0  0  0  0
 10 32  1  0  0  0  0
 10 33  1  0  0  0  0
 11 34  1  0  0  0  0
 11 35  1  0  0  0  0
 12 36  1  0  0  0  0
 12 37  1  0  0  0  0
 15 38  1  0  0  0  0
 15 39  1  0  0  0  0
 15 40  1  0  0  0  0
 16 41  1  0  0  0  0
 16 42  1  0  0  0  0
 16 43  1  0  0  0  0
 17 44  1  0  0  0  0
 17 45  1  0  0  0  0
 17 46  1  0  0  0  0
 21 47  1  0  0  0  0
M  END
> <id>
EN300-7429035

> <smiles>
CC(C)(C)OC(=O)N1CC2(C1)CCC(O)(C2)C=3C=CC=C(Br)C3

> <IUPAC Name>
tert-butyl 6-(3-bromophenyl)-6-hydroxy-2-azaspiro[3.4]octane-2-carboxylate

> <CAS>
2309446-28-2

> <URL>
https://www.enaminestore.com/catalog/EN300-7429035

> <ROCS_ShapeQuery>
_x0404_0B

> <ROCS_TanimotoCombo>
0.435 

> <ROCS_ShapeTanimoto>
0.369 

> <ROCS_ColorTanimoto>
0.065 

> <ROCS_RefTversky>
0.323 

> <ROCS_RefColorTversky>
0.071 

> <ROCS_RefTverskyCombo>
0.394 

> <ROCS_FitTversky>
1.637 

> <ROCS_FitColorTversky>
0.450 

> <ROCS_FitTverskyCombo>
2.087 

> <ROCS_ColorScore>
-5.123

> <ROCS_Overlap>
2155.313

> <ROCS_Rank>
325                 

$$$$
untitled-dbase-104939_8
  -OEChem-08222312023D

 31 34  0     0  0  0  0  0  0999 V2000
   -9.1589    4.1069  -17.9364 C   0  0  0  0  0  0  0  0  0  0  0  0
   -9.7830    3.6556  -15.6108 C   0  0  0  0  0  0  0  0  0  0  0  0
   -8.4761    4.8858  -18.8661 C   0  0  0  0  0  0  0  0  0  0  0  0
   -9.7103    3.9935  -14.2671 C   0  0  0  0  0  0  0  0  0  0  0  0
   -9.0389    3.3434  -11.1005 C   0  0  0  0  0  0  0  0  0  0  0  0
   -7.6853    6.2945  -17.0733 C   0  0  0  0  0  0  0  0  0  0  0  0
   -8.6568    6.8129  -12.1854 C   0  0  0  0  0  0  0  0  0  0  0  0
   -9.1053    4.4226  -16.5681 C   0  0  0  0  0  0  0  0  0  0  0  0
   -8.8795    4.7180  -11.3661 C   0  0  0  0  0  0  0  0  0  0  0  0
   -8.8387    5.5000  -12.5543 C   0  0  0  0  0  0  0  0  0  0  0  0
   -8.3585    5.5331  -16.1219 C   0  0  0  0  0  0  0  0  0  0  0  0
   -8.7178    5.5958  -10.2920 C   0  0  0  0  0  0  0  0  0  0  0  0
   -7.7385    5.9809  -18.4337 C   0  0  0  0  0  0  0  0  0  0  0  0
   -9.0307    2.8990   -9.7733 C   0  0  0  0  0  0  0  0  0  0  0  0
   -8.7076    5.1660   -8.9603 C   0  0  0  0  0  0  0  0  0  0  0  0
   -8.8675    3.7981   -8.7213 C   0  0  0  0  0  0  0  0  0  0  0  0
   -8.9549    5.0972  -13.9266 C   0  0  0  0  0  0  0  0  0  0  0  0
   -8.2861    5.8633  -14.8186 N   0  0  0  0  0  0  0  0  0  0  0  0
   -8.5848    6.8606  -10.8191 N   0  0  0  0  0  0  0  0  0  0  0  0
   -7.0785    6.7376  -19.3203 F   0  0  0  0  0  0  0  0  0  0  0  0
   -9.1813    1.5932   -9.5125 F   0  0  0  0  0  0  0  0  0  0  0  0
   -8.5514    6.0235   -7.9446 F   0  0  0  0  0  0  0  0  0  0  0  0
   -8.8637    3.3452   -7.4598 F   0  0  0  0  0  0  0  0  0  0  0  0
   -9.7328    3.2516  -18.2856 H   0  0  0  0  0  0  0  0  0  0  0  0
  -10.3717    2.7907  -15.9074 H   0  0  0  0  0  0  0  0  0  0  0  0
   -8.5192    4.6384  -19.9223 H   0  0  0  0  0  0  0  0  0  0  0  0
  -10.2342    3.4010  -13.5243 H   0  0  0  0  0  0  0  0  0  0  0  0
   -9.1671    2.6292  -11.9088 H   0  0  0  0  0  0  0  0  0  0  0  0
   -7.1006    7.1574  -16.7605 H   0  0  0  0  0  0  0  0  0  0  0  0
   -8.5712    7.7211  -12.7670 H   0  0  0  0  0  0  0  0  0  0  0  0
   -8.4522    7.7020  -10.2750 H   0  0  0  0  0  0  0  0  0  0  0  0
  1  3  1  0  0  0  0
  1  8  2  0  0  0  0
  2  4  2  0  0  0  0
  2  8  1  0  0  0  0
  3 13  2  0  0  0  0
  4 17  1  0  0  0  0
  5  9  2  0  0  0  0
  5 14  1  0  0  0  0
  6 11  2  0  0  0  0
  6 13  1  0  0  0  0
  7 10  2  0  0  0  0
  7 19  1  0  0  0  0
  8 11  1  0  0  0  0
  9 10  1  0  0  0  0
  9 12  1  0  0  0  0
 10 17  1  0  0  0  0
 11 18  1  0  0  0  0
 12 15  2  0  0  0  0
 12 19  1  0  0  0  0
 13 20  1  0  0  0  0
 14 16  2  0  0  0  0
 14 21  1  0  0  0  0
 15 16  1  0  0  0  0
 15 22  1  0  0  0  0
 16 23  1  0  0  0  0
 17 18  2  0  0  0  0
  1 24  1  0  0  0  0
  2 25  1  0  0  0  0
  3 26  1  0  0  0  0
  4 27  1  0  0  0  0
  5 28  1  0  0  0  0
  6 29  1  0  0  0  0
  7 30  1  0  0  0  0
 19 31  1  0  0  0  0
M  END
> <id>
EN300-201493

> <smiles>
FC=1C=CC=2C=CC(=NC2C1)C3=CNC=4C(F)=C(F)C(F)=CC34

> <MDLNUMBER>
MFCD32663425

> <IUPAC Name>
7-fluoro-2-(5,6,7-trifluoro-1H-indol-3-yl)quinoline

> <CAS>
1817720-00-5

> <URL>
https://www.enaminestore.com/catalog/EN300-201493

> <ROCS_ShapeQuery>
_x0404_0B

> <ROCS_TanimotoCombo>
0.434 

> <ROCS_ShapeTanimoto>
0.379 

> <ROCS_ColorTanimoto>
0.056 

> <ROCS_RefTversky>
0.332 

> <ROCS_RefColorTversky>
0.060 

> <ROCS_RefTverskyCombo>
0.392 

> <ROCS_FitTversky>
1.591 

> <ROCS_FitColorTversky>
0.452 

> <ROCS_FitTverskyCombo>
2.043 

> <ROCS_ColorScore>
-4.293

> <ROCS_Overlap>
2219.178

> <ROCS_Rank>
326                 

$$$$
untitled-dbase-91004_788
  -OEChem-08222312023D

 52 54  0     1  0  0  0  0  0999 V2000
   -9.1806    3.7836   -6.8442 C   0  0  0  0  0  0  0  0  0  0  0  0
   -9.0179    4.7250   -7.8544 C   0  0  0  0  0  0  0  0  0  0  0  0
   -9.3178    2.4548   -7.2121 C   0  0  0  0  0  0  0  0  0  0  0  0
   -8.9976    4.3148   -9.1828 C   0  0  0  0  0  0  0  0  0  0  0  0
   -9.1427    2.9622   -9.4459 C   0  0  0  0  0  0  0  0  0  0  0  0
   -9.3113    5.5869  -16.1530 C   0  0  0  0  0  0  0  0  0  0  0  0
   -8.6511    8.1944  -13.8286 C   0  0  0  0  0  0  0  0  0  0  0  0
   -7.5651    5.1489  -11.1583 C   0  0  0  0  0  0  0  0  0  0  0  0
   -9.1241    7.5869  -12.5036 C   0  0  0  0  0  0  0  0  0  0  0  0
   -8.0171    5.2806  -12.6172 C   0  0  0  0  0  0  0  0  0  0  0  0
   -9.9733    5.4896  -11.2903 C   0  0  0  0  0  0  0  0  0  0  0  0
   -9.5324    7.7714  -14.9970 C   0  0  0  0  0  0  0  0  0  0  0  0
  -10.2293    5.7281  -13.7988 C   0  0  0  0  0  0  0  0  0  0  0  0
   -8.8183    5.3592  -10.2729 C   0  0  1  0  0  0  0  0  0  0  0  0
   -9.3424    6.0545  -12.5809 C   0  0  1  0  0  0  0  0  0  0  0  0
   -9.0146    5.3760  -18.9919 C   0  0  0  0  0  0  0  0  0  0  0  0
   -6.7061    6.2985  -18.6330 C   0  0  0  0  0  0  0  0  0  0  0  0
   -7.3445    4.0941  -17.6127 C   0  0  0  0  0  0  0  0  0  0  0  0
   -7.8407    5.4809  -18.0195 C   0  0  0  0  0  0  0  0  0  0  0  0
   -9.3030    2.0183   -8.4914 N   0  0  0  0  0  0  0  0  0  0  0  0
   -9.6862    6.3205  -15.0244 N   0  0  0  0  0  0  0  0  0  0  0  0
   -9.8407    4.5332  -16.5018 O   0  0  0  0  0  0  0  0  0  0  0  0
   -8.6729    6.6187   -9.6013 O   0  0  0  0  0  0  0  0  0  0  0  0
   -8.2825    6.1699  -16.8443 O   0  0  0  0  0  0  0  0  0  0  0  0
   -9.1244    2.3280  -11.2433 Br  0  0  0  0  0  0  0  0  0  0  0  0
   -9.2000    4.0805   -5.8019 H   0  0  0  0  0  0  0  0  0  0  0  0
   -8.9081    5.7747   -7.5957 H   0  0  0  0  0  0  0  0  0  0  0  0
   -9.4479    1.6816   -6.4621 H   0  0  0  0  0  0  0  0  0  0  0  0
   -8.6416    9.2900  -13.7540 H   0  0  0  0  0  0  0  0  0  0  0  0
   -7.6150    7.8862  -14.0195 H   0  0  0  0  0  0  0  0  0  0  0  0
   -7.1255    4.1459  -10.9947 H   0  0  0  0  0  0  0  0  0  0  0  0
   -6.7711    5.8849  -10.9320 H   0  0  0  0  0  0  0  0  0  0  0  0
   -8.3739    7.8054  -11.7302 H   0  0  0  0  0  0  0  0  0  0  0  0
  -10.0485    8.0876  -12.1858 H   0  0  0  0  0  0  0  0  0  0  0  0
   -7.2501    5.8329  -13.1858 H   0  0  0  0  0  0  0  0  0  0  0  0
   -8.1059    4.2923  -13.0954 H   0  0  0  0  0  0  0  0  0  0  0  0
  -10.4415    4.5190  -11.4757 H   0  0  0  0  0  0  0  0  0  0  0  0
  -10.7472    6.1526  -10.8933 H   0  0  0  0  0  0  0  0  0  0  0  0
  -10.5045    8.2672  -14.9300 H   0  0  0  0  0  0  0  0  0  0  0  0
   -9.0747    8.0680  -15.9468 H   0  0  0  0  0  0  0  0  0  0  0  0
  -10.2653    4.6444  -13.9689 H   0  0  0  0  0  0  0  0  0  0  0  0
  -11.2598    6.0531  -13.6290 H   0  0  0  0  0  0  0  0  0  0  0  0
   -9.8311    4.7898  -18.5553 H   0  0  0  0  0  0  0  0  0  0  0  0
   -9.4022    6.3630  -19.2643 H   0  0  0  0  0  0  0  0  0  0  0  0
   -8.7170    4.8557  -19.9096 H   0  0  0  0  0  0  0  0  0  0  0  0
   -5.8616    6.3764  -17.9387 H   0  0  0  0  0  0  0  0  0  0  0  0
   -7.0316    7.3245  -18.8393 H   0  0  0  0  0  0  0  0  0  0  0  0
   -6.3471    5.8543  -19.5670 H   0  0  0  0  0  0  0  0  0  0  0  0
   -6.5025    4.1691  -16.9152 H   0  0  0  0  0  0  0  0  0  0  0  0
   -8.1361    3.5061  -17.1369 H   0  0  0  0  0  0  0  0  0  0  0  0
   -6.9759    3.5410  -18.4842 H   0  0  0  0  0  0  0  0  0  0  0  0
   -7.8906    6.5425   -9.0319 H   0  0  0  0  0  0  0  0  0  0  0  0
  1  2  1  0  0  0  0
  1  3  2  0  0  0  0
  2  4  2  0  0  0  0
  3 20  1  0  0  0  0
  4  5  1  0  0  0  0
  4 14  1  0  0  0  0
  5 20  2  0  0  0  0
  5 25  1  0  0  0  0
  6 21  1  0  0  0  0
  6 22  2  0  0  0  0
  6 24  1  0  0  0  0
  7  9  1  0  0  0  0
  7 12  1  0  0  0  0
  8 10  1  0  0  0  0
  8 14  1  0  0  0  0
  9 15  1  0  0  0  0
 10 15  1  0  0  0  0
 11 14  1  0  0  0  0
 11 15  1  0  0  0  0
 12 21  1  0  0  0  0
 13 15  1  0  0  0  0
 13 21  1  0  0  0  0
 14 23  1  0  0  0  0
 16 19  1  0  0  0  0
 17 19  1  0  0  0  0
 18 19  1  0  0  0  0
 19 24  1  0  0  0  0
  1 26  1  0  0  0  0
  2 27  1  0  0  0  0
  3 28  1  0  0  0  0
  7 29  1  0  0  0  0
  7 30  1  0  0  0  0
  8 31  1  0  0  0  0
  8 32  1  0  0  0  0
  9 33  1  0  0  0  0
  9 34  1  0  0  0  0
 10 35  1  0  0  0  0
 10 36  1  0  0  0  0
 11 37  1  0  0  0  0
 11 38  1  0  0  0  0
 12 39  1  0  0  0  0
 12 40  1  0  0  0  0
 13 41  1  0  0  0  0
 13 42  1  0  0  0  0
 16 43  1  0  0  0  0
 16 44  1  0  0  0  0
 16 45  1  0  0  0  0
 17 46  1  0  0  0  0
 17 47  1  0  0  0  0
 17 48  1  0  0  0  0
 18 49  1  0  0  0  0
 18 50  1  0  0  0  0
 18 51  1  0  0  0  0
 23 52  1  0  0  0  0
M  END
> <id>
EN300-7428803

> <smiles>
CC(C)(C)OC(=O)N1CCCC2(CCC(O)(C2)C=3C=CC=NC3Br)C1

> <IUPAC Name>
tert-butyl 2-(2-bromopyridin-3-yl)-2-hydroxy-7-azaspiro[4.5]decane-7-carboxylate

> <CAS>
2309456-21-9

> <URL>
https://www.enaminestore.com/catalog/EN300-7428803

> <ROCS_ShapeQuery>
_x0404_0B

> <ROCS_TanimotoCombo>
0.434 

> <ROCS_ShapeTanimoto>
0.375 

> <ROCS_ColorTanimoto>
0.059 

> <ROCS_RefTversky>
0.330 

> <ROCS_RefColorTversky>
0.065 

> <ROCS_RefTverskyCombo>
0.395 

> <ROCS_FitTversky>
1.576 

> <ROCS_FitColorTversky>
0.384 

> <ROCS_FitTverskyCombo>
1.959 

> <ROCS_ColorScore>
-4.732

> <ROCS_Overlap>
2204.269

> <ROCS_Rank>
327                 

$$$$
untitled-dbase-169721_5
  -OEChem-08222312023D

 38 41  0     1  0  0  0  0  0999 V2000
   -8.2576    3.6913  -11.3423 C   0  0  0  0  0  0  0  0  0  0  0  0
   -8.8446    6.3910  -12.0153 C   0  0  0  0  0  0  0  0  0  0  0  0
   -8.1832    4.1505  -12.6395 C   0  0  0  0  0  0  0  0  0  0  0  0
   -8.4658    5.4654  -12.9667 C   0  0  0  0  0  0  0  0  0  0  0  0
   -8.6289    4.6126  -10.3481 C   0  0  0  0  0  0  0  0  0  0  0  0
   -8.9467    5.9624  -10.6803 C   0  0  0  0  0  0  0  0  0  0  0  0
   -7.8210    3.4435  -13.8676 C   0  0  0  0  0  0  0  0  0  0  0  0
   -8.2869    5.6222  -14.4097 C   0  0  0  0  0  0  0  0  0  0  0  0
   -9.1177    6.0114  -17.9211 C   0  0  0  0  0  0  0  0  0  0  0  0
   -6.9677    5.3489  -16.8157 C   0  0  0  0  0  0  0  0  0  0  0  0
   -8.7337    4.1463   -8.9155 C   0  0  0  0  0  0  0  0  0  0  0  0
   -9.8095    4.8416  -17.2667 C   0  0  0  0  0  0  0  0  0  0  0  0
   -8.6385    5.3151   -7.9373 C   0  0  0  0  0  0  0  0  0  0  0  0
   -8.8554    3.6803  -17.0507 C   0  0  0  0  0  0  0  0  0  0  0  0
   -9.5918    6.4315   -8.3439 C   0  0  0  0  0  0  0  0  0  0  0  0
   -7.6289    4.1059  -16.2590 C   0  0  2  0  0  0  0  0  0  0  0  0
   -9.3134    6.8748   -9.6958 N   0  0  0  0  0  0  0  0  0  0  0  0
   -7.7679    6.1550  -17.6196 N   0  0  0  0  0  0  0  0  0  0  0  0
   -7.9096    4.3801  -14.8752 N   0  0  0  0  0  0  0  0  0  0  0  0
   -7.5118    2.2672  -13.9105 O   0  0  0  0  0  0  0  0  0  0  0  0
   -8.4522    6.6682  -15.0094 O   0  0  0  0  0  0  0  0  0  0  0  0
   -9.7355    6.8128  -18.6217 O   0  0  0  0  0  0  0  0  0  0  0  0
   -5.8218    5.6678  -16.4947 O   0  0  0  0  0  0  0  0  0  0  0  0
   -8.0332    2.6590  -11.0963 H   0  0  0  0  0  0  0  0  0  0  0  0
   -9.0628    7.4176  -12.2923 H   0  0  0  0  0  0  0  0  0  0  0  0
   -9.6937    3.6315   -8.7888 H   0  0  0  0  0  0  0  0  0  0  0  0
   -7.9355    3.4291   -8.6912 H   0  0  0  0  0  0  0  0  0  0  0  0
  -10.2122    5.1700  -16.3021 H   0  0  0  0  0  0  0  0  0  0  0  0
  -10.6500    4.5427  -17.9034 H   0  0  0  0  0  0  0  0  0  0  0  0
   -8.8740    4.9689   -6.9247 H   0  0  0  0  0  0  0  0  0  0  0  0
   -7.6112    5.7014   -7.9121 H   0  0  0  0  0  0  0  0  0  0  0  0
   -9.3885    2.8672  -16.5212 H   0  0  0  0  0  0  0  0  0  0  0  0
   -8.5539    3.2674  -18.0306 H   0  0  0  0  0  0  0  0  0  0  0  0
  -10.6302    6.0842   -8.2823 H   0  0  0  0  0  0  0  0  0  0  0  0
   -9.4909    7.2789   -7.6577 H   0  0  0  0  0  0  0  0  0  0  0  0
   -6.8620    3.2993  -16.2704 H   0  0  0  0  0  0  0  0  0  0  0  0
   -9.5935    7.8079   -9.9741 H   0  0  0  0  0  0  0  0  0  0  0  0
   -7.3045    6.9559  -18.0434 H   0  0  0  0  0  0  0  0  0  0  0  0
  1  3  2  0  0  0  0
  1  5  1  0  0  0  0
  2  4  2  0  0  0  0
  2  6  1  0  0  0  0
  3  4  1  0  0  0  0
  3  7  1  0  0  0  0
  4  8  1  0  0  0  0
  5  6  2  0  0  0  0
  5 11  1  0  0  0  0
  6 17  1  0  0  0  0
  7 19  1  0  0  0  0
  7 20  2  0  0  0  0
  8 19  1  0  0  0  0
  8 21  2  0  0  0  0
  9 12  1  0  0  0  0
  9 18  1  0  0  0  0
  9 22  2  0  0  0  0
 10 16  1  0  0  0  0
 10 18  1  0  0  0  0
 10 23  2  0  0  0  0
 11 13  1  0  0  0  0
 12 14  1  0  0  0  0
 13 15  1  0  0  0  0
 14 16  1  0  0  0  0
 15 17  1  0  0  0  0
 16 19  1  0  0  0  0
  1 24  1  0  0  0  0
  2 25  1  0  0  0  0
 11 26  1  0  0  0  0
 11 27  1  0  0  0  0
 12 28  1  0  0  0  0
 12 29  1  0  0  0  0
 13 30  1  0  0  0  0
 13 31  1  0  0  0  0
 14 32  1  0  0  0  0
 14 33  1  0  0  0  0
 15 34  1  0  0  0  0
 15 35  1  0  0  0  0
 16 36  1  0  0  0  0
 17 37  1  0  0  0  0
 18 38  1  0  0  0  0
M  END
> <id>
EN300-39872074

> <smiles>
O=C1N(C2CCC(=O)NC2=O)C(=O)C=3C=C4NCCCC4=CC13

> <IUPAC Name>
3-{6,8-dioxo-1H,2H,3H,4H,6H,7H,8H-pyrrolo[3,4-g]quinolin-7-yl}piperidine-2,6-dione

> <URL>
https://www.enaminestore.com/catalog/EN300-39872074

> <ROCS_ShapeQuery>
_x0404_0B

> <ROCS_TanimotoCombo>
0.434 

> <ROCS_ShapeTanimoto>
0.335 

> <ROCS_ColorTanimoto>
0.100 

> <ROCS_RefTversky>
0.303 

> <ROCS_RefColorTversky>
0.107 

> <ROCS_RefTverskyCombo>
0.410 

> <ROCS_FitTversky>
1.468 

> <ROCS_FitColorTversky>
0.583 

> <ROCS_FitTverskyCombo>
2.051 

> <ROCS_ColorScore>
-7.756

> <ROCS_Overlap>
2020.594

> <ROCS_Rank>
328                 

$$$$
untitled-dbase-93026_779
  -OEChem-08222312023D

 45 47  0     1  0  0  0  0  0999 V2000
   -9.0550    4.5852   -7.0967 C   0  0  0  0  0  0  0  0  0  0  0  0
   -9.1791    3.2217   -6.7997 C   0  0  0  0  0  0  0  0  0  0  0  0
   -9.1547    2.6279   -9.1650 C   0  0  0  0  0  0  0  0  0  0  0  0
   -8.9807    4.9645   -8.4449 C   0  0  0  0  0  0  0  0  0  0  0  0
   -9.0318    3.9898   -9.4320 C   0  0  0  0  0  0  0  0  0  0  0  0
   -9.2278    2.2628   -7.8161 C   0  0  0  0  0  0  0  0  0  0  0  0
   -8.4901    5.7644  -15.4771 C   0  0  0  0  0  0  0  0  0  0  0  0
   -7.8119    2.6552  -13.7110 C   0  0  0  0  0  0  0  0  0  0  0  0
   -7.7983    3.1906  -12.2748 C   0  0  0  0  0  0  0  0  0  0  0  0
   -8.7238    3.4353  -14.6541 C   0  0  0  0  0  0  0  0  0  0  0  0
   -8.8705    5.3382  -13.0364 C   0  0  0  0  0  0  0  0  0  0  0  0
   -8.9334    4.1918  -12.0138 C   0  0  2  0  0  0  0  0  0  0  0  0
   -6.1730    5.9033  -17.1494 C   0  0  0  0  0  0  0  0  0  0  0  0
   -7.6228    4.8847  -18.9297 C   0  0  0  0  0  0  0  0  0  0  0  0
   -8.2048    7.1354  -17.9790 C   0  0  0  0  0  0  0  0  0  0  0  0
   -7.5985    5.7647  -17.6818 C   0  0  0  0  0  0  0  0  0  0  0  0
   -8.8587    6.1975   -9.0291 N   0  0  0  0  0  0  0  0  0  0  0  0
   -8.8316    6.0279  -10.3466 N   0  0  0  0  0  0  0  0  0  0  0  0
   -8.9347    4.7103  -10.5872 N   0  0  0  0  0  0  0  0  0  0  0  0
   -8.6609    4.8734  -14.4125 N   0  0  0  0  0  0  0  0  0  0  0  0
   -8.4271    6.9865  -15.3597 O   0  0  0  0  0  0  0  0  0  0  0  0
   -9.3490    0.9442   -7.4877 O   0  0  0  0  0  0  0  0  0  0  0  0
   -8.3971    5.1196  -16.6833 O   0  0  0  0  0  0  0  0  0  0  0  0
   -9.0180    5.3224   -6.3013 H   0  0  0  0  0  0  0  0  0  0  0  0
   -9.2379    2.9114   -5.7589 H   0  0  0  0  0  0  0  0  0  0  0  0
   -9.1918    1.8896   -9.9581 H   0  0  0  0  0  0  0  0  0  0  0  0
   -6.7807    2.6578  -14.1104 H   0  0  0  0  0  0  0  0  0  0  0  0
   -8.1235    1.5926  -13.6991 H   0  0  0  0  0  0  0  0  0  0  0  0
   -7.8673    2.3466  -11.5688 H   0  0  0  0  0  0  0  0  0  0  0  0
   -6.8225    3.6670  -12.0768 H   0  0  0  0  0  0  0  0  0  0  0  0
   -8.4228    3.2680  -15.6990 H   0  0  0  0  0  0  0  0  0  0  0  0
   -9.7552    3.0695  -14.5573 H   0  0  0  0  0  0  0  0  0  0  0  0
   -9.7846    5.9550  -12.9597 H   0  0  0  0  0  0  0  0  0  0  0  0
   -8.0339    6.0249  -12.8007 H   0  0  0  0  0  0  0  0  0  0  0  0
   -9.9106    3.6773  -12.1034 H   0  0  0  0  0  0  0  0  0  0  0  0
   -6.1512    6.5343  -16.2536 H   0  0  0  0  0  0  0  0  0  0  0  0
   -5.7392    4.9296  -16.8994 H   0  0  0  0  0  0  0  0  0  0  0  0
   -5.5258    6.3914  -17.8871 H   0  0  0  0  0  0  0  0  0  0  0  0
   -8.6437    4.7824  -19.3151 H   0  0  0  0  0  0  0  0  0  0  0  0
   -7.2770    3.8706  -18.6990 H   0  0  0  0  0  0  0  0  0  0  0  0
   -6.9913    5.2938  -19.7250 H   0  0  0  0  0  0  0  0  0  0  0  0
   -9.2274    7.0362  -18.3609 H   0  0  0  0  0  0  0  0  0  0  0  0
   -8.2295    7.7677  -17.0856 H   0  0  0  0  0  0  0  0  0  0  0  0
   -7.6331    7.6539  -18.7571 H   0  0  0  0  0  0  0  0  0  0  0  0
   -9.3878    0.8430   -6.5243 H   0  0  0  0  0  0  0  0  0  0  0  0
  1  2  1  0  0  0  0
  1  4  2  0  0  0  0
  2  6  2  0  0  0  0
  3  5  2  0  0  0  0
  3  6  1  0  0  0  0
  4  5  1  0  0  0  0
  4 17  1  0  0  0  0
  5 19  1  0  0  0  0
  6 22  1  0  0  0  0
  7 20  1  0  0  0  0
  7 21  2  0  0  0  0
  7 23  1  0  0  0  0
  8  9  1  0  0  0  0
  8 10  1  0  0  0  0
  9 12  1  0  0  0  0
 10 20  1  0  0  0  0
 11 12  1  0  0  0  0
 11 20  1  0  0  0  0
 12 19  1  0  0  0  0
 13 16  1  0  0  0  0
 14 16  1  0  0  0  0
 15 16  1  0  0  0  0
 16 23  1  0  0  0  0
 17 18  2  0  0  0  0
 18 19  1  0  0  0  0
  1 24  1  0  0  0  0
  2 25  1  0  0  0  0
  3 26  1  0  0  0  0
  8 27  1  0  0  0  0
  8 28  1  0  0  0  0
  9 29  1  0  0  0  0
  9 30  1  0  0  0  0
 10 31  1  0  0  0  0
 10 32  1  0  0  0  0
 11 33  1  0  0  0  0
 11 34  1  0  0  0  0
 12 35  1  0  0  0  0
 13 36  1  0  0  0  0
 13 37  1  0  0  0  0
 13 38  1  0  0  0  0
 14 39  1  0  0  0  0
 14 40  1  0  0  0  0
 14 41  1  0  0  0  0
 15 42  1  0  0  0  0
 15 43  1  0  0  0  0
 15 44  1  0  0  0  0
 22 45  1  0  0  0  0
M  END
> <id>
EN300-6749244

> <smiles>
CC(C)(C)OC(=O)N1CCCC(C1)N2N=NC=3C=CC(O)=CC23

> <IUPAC Name>
tert-butyl 3-(6-hydroxy-1H-1,2,3-benzotriazol-1-yl)piperidine-1-carboxylate

> <CAS>
2287309-97-9

> <URL>
https://www.enaminestore.com/catalog/EN300-6749244

> <ROCS_ShapeQuery>
_x0404_0B

> <ROCS_TanimotoCombo>
0.434 

> <ROCS_ShapeTanimoto>
0.364 

> <ROCS_ColorTanimoto>
0.070 

> <ROCS_RefTversky>
0.320 

> <ROCS_RefColorTversky>
0.077 

> <ROCS_RefTverskyCombo>
0.398 

> <ROCS_FitTversky>
1.594 

> <ROCS_FitColorTversky>
0.441 

> <ROCS_FitTverskyCombo>
2.035 

> <ROCS_ColorScore>
-5.587

> <ROCS_Overlap>
2140.095

> <ROCS_Rank>
329                 

$$$$
untitled-dbase-22295_3
  -OEChem-08222312023D

 30 33  0     0  0  0  0  0  0999 V2000
   -8.6978    4.7440  -18.3373 C   0  0  0  0  0  0  0  0  0  0  0  0
   -7.9434    5.9106  -18.1885 C   0  0  0  0  0  0  0  0  0  0  0  0
   -8.9562    6.0054   -7.9553 C   0  0  0  0  0  0  0  0  0  0  0  0
   -9.2174    4.0718  -17.2225 C   0  0  0  0  0  0  0  0  0  0  0  0
   -8.8615    6.6842   -9.1767 C   0  0  0  0  0  0  0  0  0  0  0  0
   -9.0368    4.6116   -7.9111 C   0  0  0  0  0  0  0  0  0  0  0  0
   -7.6806    6.4479  -16.9249 C   0  0  0  0  0  0  0  0  0  0  0  0
   -9.2999    4.2290  -14.6114 C   0  0  0  0  0  0  0  0  0  0  0  0
   -8.9656    4.5947  -15.9420 C   0  0  0  0  0  0  0  0  0  0  0  0
   -8.8491    5.9313  -10.3630 C   0  0  0  0  0  0  0  0  0  0  0  0
   -8.9310    4.5437  -10.2868 C   0  0  0  0  0  0  0  0  0  0  0  0
   -9.0260    3.8465   -9.0820 C   0  0  0  0  0  0  0  0  0  0  0  0
   -8.2102    5.7581  -15.8359 C   0  0  0  0  0  0  0  0  0  0  0  0
   -8.7345    5.1802  -13.7941 C   0  0  0  0  0  0  0  0  0  0  0  0
   -8.7950    5.2397  -12.3825 C   0  0  0  0  0  0  0  0  0  0  0  0
   -8.7655    6.3453  -11.6726 N   0  0  0  0  0  0  0  0  0  0  0  0
   -8.8942    4.1279  -11.5931 N   0  0  0  0  0  0  0  0  0  0  0  0
   -9.1078    2.4453   -9.0228 N   0  0  0  0  0  0  0  0  0  0  0  0
   -8.0711    6.1121  -14.5272 O   0  0  0  0  0  0  0  0  0  0  0  0
   -8.8866    4.3511  -19.3334 H   0  0  0  0  0  0  0  0  0  0  0  0
   -7.5540    6.4107  -19.0715 H   0  0  0  0  0  0  0  0  0  0  0  0
   -8.9671    6.5721   -7.0279 H   0  0  0  0  0  0  0  0  0  0  0  0
   -9.8024    3.1667  -17.3540 H   0  0  0  0  0  0  0  0  0  0  0  0
   -8.7996    7.7675   -9.2007 H   0  0  0  0  0  0  0  0  0  0  0  0
   -9.1088    4.1210   -6.9426 H   0  0  0  0  0  0  0  0  0  0  0  0
   -7.0974    7.3527  -16.8011 H   0  0  0  0  0  0  0  0  0  0  0  0
   -9.8819    3.3733  -14.2963 H   0  0  0  0  0  0  0  0  0  0  0  0
   -8.9344    3.1683  -11.9110 H   0  0  0  0  0  0  0  0  0  0  0  0
   -9.1270    1.9894   -8.1300 H   0  0  0  0  0  0  0  0  0  0  0  0
   -9.0511    1.9117   -9.8699 H   0  0  0  0  0  0  0  0  0  0  0  0
  1  2  2  0  0  0  0
  1  4  1  0  0  0  0
  2  7  1  0  0  0  0
  3  5  2  0  0  0  0
  3  6  1  0  0  0  0
  4  9  2  0  0  0  0
  5 10  1  0  0  0  0
  6 12  2  0  0  0  0
  7 13  2  0  0  0  0
  8  9  1  0  0  0  0
  8 14  2  0  0  0  0
  9 13  1  0  0  0  0
 10 11  2  0  0  0  0
 10 16  1  0  0  0  0
 11 12  1  0  0  0  0
 11 17  1  0  0  0  0
 12 18  1  0  0  0  0
 13 19  1  0  0  0  0
 14 15  1  0  0  0  0
 14 19  1  0  0  0  0
 15 16  2  0  0  0  0
 15 17  1  0  0  0  0
  1 20  1  0  0  0  0
  2 21  1  0  0  0  0
  3 22  1  0  0  0  0
  4 23  1  0  0  0  0
  5 24  1  0  0  0  0
  6 25  1  0  0  0  0
  7 26  1  0  0  0  0
  8 27  1  0  0  0  0
 17 28  1  0  0  0  0
 18 29  1  0  0  0  0
 18 30  1  0  0  0  0
M  END
> <id>
EN300-319121

> <smiles>
NC=1C=CC=C2N=C(NC12)C3=CC=4C=CC=CC4O3

> <MDLNUMBER>
MFCD18608134

> <IUPAC Name>
2-(1-benzofuran-2-yl)-1H-1,3-benzodiazol-7-amine

> <CAS>
1406700-21-7

> <URL>
https://www.enaminestore.com/catalog/EN300-319121

> <ROCS_ShapeQuery>
_x0404_0B

> <ROCS_TanimotoCombo>
0.434 

> <ROCS_ShapeTanimoto>
0.342 

> <ROCS_ColorTanimoto>
0.093 

> <ROCS_RefTversky>
0.301 

> <ROCS_RefColorTversky>
0.100 

> <ROCS_RefTverskyCombo>
0.402 

> <ROCS_FitTversky>
1.648 

> <ROCS_FitColorTversky>
0.545 

> <ROCS_FitTverskyCombo>
2.194 

> <ROCS_ColorScore>
-7.263

> <ROCS_Overlap>
2009.210

> <ROCS_Rank>
330                 

$$$$
untitled-dbase-24978_57
  -OEChem-08222312023D

 40 43  0     1  0  0  0  0  0999 V2000
   -9.0650    4.0010  -12.0989 C   0  0  0  0  0  0  0  0  0  0  0  0
   -9.0973    3.7598  -10.7313 C   0  0  0  0  0  0  0  0  0  0  0  0
   -8.9235    4.8451   -9.8771 C   0  0  0  0  0  0  0  0  0  0  0  0
   -8.8404    5.2935  -12.5267 C   0  0  0  0  0  0  0  0  0  0  0  0
   -9.3820    2.3834  -10.1921 C   0  0  0  0  0  0  0  0  0  0  0  0
   -8.9178    4.6432   -8.3867 C   0  0  0  0  0  0  0  0  0  0  0  0
   -9.5621    3.3167   -7.9790 C   0  0  0  0  0  0  0  0  0  0  0  0
   -9.9217    5.2466  -14.7784 C   0  0  0  0  0  0  0  0  0  0  0  0
   -7.7679    6.3341  -14.5289 C   0  0  0  0  0  0  0  0  0  0  0  0
   -9.2275    4.4267  -17.1129 C   0  0  0  0  0  0  0  0  0  0  0  0
   -7.1208    5.3352  -16.8049 C   0  0  0  0  0  0  0  0  0  0  0  0
   -9.4421    5.6201  -16.1794 C   0  0  2  0  0  0  0  0  0  0  0  0
   -8.0581    6.2537  -16.0230 C   0  0  1  0  0  0  0  0  0  0  0  0
   -8.1616    5.5358  -18.9919 C   0  0  0  0  0  0  0  0  0  0  0  0
   -8.6982    6.0973  -10.3369 N   0  0  0  0  0  0  0  0  0  0  0  0
   -8.6587    6.3253  -11.6783 N   0  0  0  0  0  0  0  0  0  0  0  0
   -9.0245    2.2115   -8.7772 N   0  0  0  0  0  0  0  0  0  0  0  0
   -8.7990    5.5259  -13.8907 N   0  0  0  0  0  0  0  0  0  0  0  0
   -7.9634    4.6848  -17.8190 N   0  0  0  0  0  0  0  0  0  0  0  0
   -9.2115    3.1904  -12.8065 H   0  0  0  0  0  0  0  0  0  0  0  0
  -10.4512    2.1590  -10.3001 H   0  0  0  0  0  0  0  0  0  0  0  0
   -8.8357    1.6452  -10.7947 H   0  0  0  0  0  0  0  0  0  0  0  0
   -7.8880    4.6761   -8.0154 H   0  0  0  0  0  0  0  0  0  0  0  0
   -9.4635    5.4767   -7.9290 H   0  0  0  0  0  0  0  0  0  0  0  0
   -9.4032    3.1181   -6.9091 H   0  0  0  0  0  0  0  0  0  0  0  0
  -10.6485    3.3757   -8.1253 H   0  0  0  0  0  0  0  0  0  0  0  0
  -10.7694    5.8839  -14.4970 H   0  0  0  0  0  0  0  0  0  0  0  0
  -10.2439    4.2016  -14.7111 H   0  0  0  0  0  0  0  0  0  0  0  0
   -6.7751    5.9520  -14.2583 H   0  0  0  0  0  0  0  0  0  0  0  0
   -7.8232    7.3776  -14.1918 H   0  0  0  0  0  0  0  0  0  0  0  0
   -9.1851    3.4672  -16.5806 H   0  0  0  0  0  0  0  0  0  0  0  0
  -10.0709    4.3745  -17.8183 H   0  0  0  0  0  0  0  0  0  0  0  0
   -6.3164    5.9361  -17.2781 H   0  0  0  0  0  0  0  0  0  0  0  0
   -6.6273    4.5928  -16.1473 H   0  0  0  0  0  0  0  0  0  0  0  0
  -10.1468    6.3166  -16.6507 H   0  0  0  0  0  0  0  0  0  0  0  0
   -8.0511    7.2852  -16.4602 H   0  0  0  0  0  0  0  0  0  0  0  0
   -7.1958    5.7046  -19.4906 H   0  0  0  0  0  0  0  0  0  0  0  0
   -8.8533    5.0420  -19.6903 H   0  0  0  0  0  0  0  0  0  0  0  0
   -8.5853    6.5009  -18.6772 H   0  0  0  0  0  0  0  0  0  0  0  0
   -9.4130    1.3332   -8.4375 H   0  0  0  0  0  0  0  0  0  0  0  0
  1  2  1  0  0  0  0
  1  4  2  0  0  0  0
  2  3  2  0  0  0  0
  2  5  1  0  0  0  0
  3  6  1  0  0  0  0
  3 15  1  0  0  0  0
  4 16  1  0  0  0  0
  4 18  1  0  0  0  0
  5 17  1  0  0  0  0
  6  7  1  0  0  0  0
  7 17  1  0  0  0  0
  8 12  1  0  0  0  0
  8 18  1  0  0  0  0
  9 13  1  1  0  0  0
  9 18  1  0  0  0  0
 10 12  1  1  0  0  0
 10 19  1  0  0  0  0
 11 13  1  0  0  0  0
 11 19  1  0  0  0  0
 12 13  1  0  0  0  0
 14 19  1  0  0  0  0
 15 16  2  0  0  0  0
  1 20  1  0  0  0  0
  5 21  1  0  0  0  0
  5 22  1  0  0  0  0
  6 23  1  0  0  0  0
  6 24  1  0  0  0  0
  7 25  1  0  0  0  0
  7 26  1  0  0  0  0
  8 27  1  0  0  0  0
  8 28  1  0  0  0  0
  9 29  1  0  0  0  0
  9 30  1  0  0  0  0
 10 31  1  0  0  0  0
 10 32  1  0  0  0  0
 11 33  1  0  0  0  0
 11 34  1  0  0  0  0
 12 35  1  0  0  0  0
 13 36  1  0  0  0  0
 14 37  1  0  0  0  0
 14 38  1  0  0  0  0
 14 39  1  0  0  0  0
 17 40  1  0  0  0  0
M  END
> <id>
EN300-333415

> <smiles>
CN1C[C@H]2CN(C[C@H]2C1)C=3C=C4CNCCC4=NN3

> <MDLNUMBER>
MFCD30535680

> <IUPAC Name>
(3aR,6aS)-2-methyl-5-{5H,6H,7H,8H-pyrido[4,3-c]pyridazin-3-yl}-octahydropyrrolo[3,4-c]pyrrole

> <CAS>
2059908-10-8

> <Purity>
95

> <URL>
https://www.enaminestore.com/catalog/EN300-333415

> <ROCS_ShapeQuery>
_x0404_0B

> <ROCS_TanimotoCombo>
0.434 

> <ROCS_ShapeTanimoto>
0.342 

> <ROCS_ColorTanimoto>
0.093 

> <ROCS_RefTversky>
0.300 

> <ROCS_RefColorTversky>
0.100 

> <ROCS_RefTverskyCombo>
0.399 

> <ROCS_FitTversky>
1.696 

> <ROCS_FitColorTversky>
0.567 

> <ROCS_FitTverskyCombo>
2.263 

> <ROCS_ColorScore>
-7.201

> <ROCS_Overlap>
1998.398

> <ROCS_Rank>
331                 

$$$$
untitled-dbase-81867_657
  -OEChem-08222312023D

 51 54  0     1  0  0  0  0  0999 V2000
   -7.3863    5.9760  -14.9181 C   0  0  0  0  0  0  0  0  0  0  0  0
   -7.1905    6.0185  -16.2399 C   0  0  0  0  0  0  0  0  0  0  0  0
   -9.9333    4.1059  -18.7942 C   0  0  0  0  0  0  0  0  0  0  0  0
   -9.3838    4.6830  -15.1700 C   0  0  0  0  0  0  0  0  0  0  0  0
   -8.5197    5.2877  -14.3366 C   0  0  0  0  0  0  0  0  0  0  0  0
   -8.8580    4.7652  -19.2469 C   0  0  0  0  0  0  0  0  0  0  0  0
   -8.1553    5.3448  -17.1526 C   0  0  0  0  0  0  0  0  0  0  0  0
  -10.1888    4.0332  -17.3372 C   0  0  0  0  0  0  0  0  0  0  0  0
   -8.9648    5.3084   -8.9834 C   0  0  0  0  0  0  0  0  0  0  0  0
   -9.2780    8.1274  -10.5218 C   0  0  0  0  0  0  0  0  0  0  0  0
   -7.9794    7.9786  -11.2439 C   0  0  0  0  0  0  0  0  0  0  0  0
   -8.0466    4.2344  -12.1474 C   0  0  0  0  0  0  0  0  0  0  0  0
   -7.4259    4.8150  -10.8734 C   0  0  0  0  0  0  0  0  0  0  0  0
   -9.5543    6.2276  -12.2938 C   0  0  0  0  0  0  0  0  0  0  0  0
   -8.8760    6.7641  -11.0484 C   0  0  0  0  0  0  0  0  0  0  0  0
  -11.0325    4.0297   -7.4740 C   0  0  0  0  0  0  0  0  0  0  0  0
   -9.6322    1.9533   -7.6665 C   0  0  0  0  0  0  0  0  0  0  0  0
   -8.7292    3.9635   -6.4616 C   0  0  0  0  0  0  0  0  0  0  0  0
   -9.6136    3.4793   -7.6097 C   0  0  0  0  0  0  0  0  0  0  0  0
   -7.9506    5.3958  -18.4349 N   0  0  0  0  0  0  0  0  0  0  0  0
   -9.2372    4.6904  -16.5530 N   0  0  0  0  0  0  0  0  0  0  0  0
   -8.6494    5.2899  -12.9768 N   0  0  3  0  0  0  0  0  0  0  0  0
   -8.3910    5.6856  -10.2004 N   0  0  0  0  0  0  0  0  0  0  0  0
  -11.1783    3.4250  -16.9346 O   0  0  0  0  0  0  0  0  0  0  0  0
   -9.3295    6.1005   -8.1164 O   0  0  0  0  0  0  0  0  0  0  0  0
   -8.6394    4.8197  -20.6112 O   0  0  0  0  0  0  0  0  0  0  0  0
   -9.0582    3.9501   -8.8429 O   0  0  0  0  0  0  0  0  0  0  0  0
   -6.6808    6.4679  -14.2555 H   0  0  0  0  0  0  0  0  0  0  0  0
   -6.3410    6.5342  -16.6723 H   0  0  0  0  0  0  0  0  0  0  0  0
  -10.6331    3.6166  -19.4618 H   0  0  0  0  0  0  0  0  0  0  0  0
  -10.2475    4.1554  -14.7768 H   0  0  0  0  0  0  0  0  0  0  0  0
   -9.2168    8.3390   -9.4613 H   0  0  0  0  0  0  0  0  0  0  0  0
  -10.0790    8.6563  -11.0251 H   0  0  0  0  0  0  0  0  0  0  0  0
   -7.8994    8.4139  -12.2328 H   0  0  0  0  0  0  0  0  0  0  0  0
   -7.0702    8.0482  -10.6579 H   0  0  0  0  0  0  0  0  0  0  0  0
   -7.2686    3.6956  -12.7018 H   0  0  0  0  0  0  0  0  0  0  0  0
   -8.8217    3.5033  -11.8866 H   0  0  0  0  0  0  0  0  0  0  0  0
   -7.1107    4.0030  -10.2105 H   0  0  0  0  0  0  0  0  0  0  0  0
   -6.5388    5.4129  -11.1129 H   0  0  0  0  0  0  0  0  0  0  0  0
  -10.4756    5.7018  -12.0140 H   0  0  0  0  0  0  0  0  0  0  0  0
   -9.8443    7.0491  -12.9611 H   0  0  0  0  0  0  0  0  0  0  0  0
  -11.0234    5.1248   -7.4330 H   0  0  0  0  0  0  0  0  0  0  0  0
  -11.6676    3.7183   -8.3098 H   0  0  0  0  0  0  0  0  0  0  0  0
  -11.4965    3.6892   -6.5413 H   0  0  0  0  0  0  0  0  0  0  0  0
   -8.6162    1.5541   -7.7639 H   0  0  0  0  0  0  0  0  0  0  0  0
  -10.1872    1.6021   -8.5439 H   0  0  0  0  0  0  0  0  0  0  0  0
  -10.0901    1.5213   -6.7709 H   0  0  0  0  0  0  0  0  0  0  0  0
   -7.7114    3.5688   -6.5587 H   0  0  0  0  0  0  0  0  0  0  0  0
   -8.6743    5.0564   -6.4280 H   0  0  0  0  0  0  0  0  0  0  0  0
   -9.1096    3.6042   -5.4985 H   0  0  0  0  0  0  0  0  0  0  0  0
   -7.8385    5.3206  -20.7911 H   0  0  0  0  0  0  0  0  0  0  0  0
  1  2  2  0  0  0  0
  1  5  1  0  0  0  0
  2  7  1  0  0  0  0
  3  6  2  0  0  0  0
  3  8  1  0  0  0  0
  4  5  2  0  0  0  0
  4 21  1  0  0  0  0
  5 22  1  0  0  0  0
  6 20  1  0  0  0  0
  6 26  1  0  0  0  0
  7 20  2  0  0  0  0
  7 21  1  0  0  0  0
  8 21  1  0  0  0  0
  8 24  2  0  0  0  0
  9 23  1  0  0  0  0
  9 25  2  0  0  0  0
  9 27  1  0  0  0  0
 10 11  1  0  0  0  0
 10 15  1  0  0  0  0
 11 15  1  0  0  0  0
 12 13  1  0  0  0  0
 12 22  1  0  0  0  0
 13 23  1  0  0  0  0
 14 15  1  0  0  0  0
 14 22  1  0  0  0  0
 15 23  1  0  0  0  0
 16 19  1  0  0  0  0
 17 19  1  0  0  0  0
 18 19  1  0  0  0  0
 19 27  1  0  0  0  0
  1 28  1  0  0  0  0
  2 29  1  0  0  0  0
  3 30  1  0  0  0  0
  4 31  1  0  0  0  0
 10 32  1  0  0  0  0
 10 33  1  0  0  0  0
 11 34  1  0  0  0  0
 11 35  1  0  0  0  0
 12 36  1  0  0  0  0
 12 37  1  0  0  0  0
 13 38  1  0  0  0  0
 13 39  1  0  0  0  0
 14 40  1  0  0  0  0
 14 41  1  0  0  0  0
 16 42  1  0  0  0  0
 16 43  1  0  0  0  0
 16 44  1  0  0  0  0
 17 45  1  0  0  0  0
 17 46  1  0  0  0  0
 17 47  1  0  0  0  0
 18 48  1  0  0  0  0
 18 49  1  0  0  0  0
 18 50  1  0  0  0  0
 26 51  1  0  0  0  0
M  END
> <id>
EN300-7425373

> <smiles>
CC(C)(C)OC(=O)N1CCN(CC21CC2)C=3C=CC4=NC(O)=CC(=O)N4C3

> <MDLNUMBER>
MFCD32708882

> <IUPAC Name>
tert-butyl 7-{2-hydroxy-4-oxo-4H-pyrido[1,2-a]pyrimidin-7-yl}-4,7-diazaspiro[2.5]octane-4-carboxylate

> <CAS>
2133298-72-1

> <URL>
https://www.enaminestore.com/catalog/EN300-7425373

> <ROCS_ShapeQuery>
_x0404_0B

> <ROCS_TanimotoCombo>
0.434 

> <ROCS_ShapeTanimoto>
0.386 

> <ROCS_ColorTanimoto>
0.049 

> <ROCS_RefTversky>
0.342 

> <ROCS_RefColorTversky>
0.054 

> <ROCS_RefTverskyCombo>
0.396 

> <ROCS_FitTversky>
1.492 

> <ROCS_FitColorTversky>
0.318 

> <ROCS_FitTverskyCombo>
1.810 

> <ROCS_ColorScore>
-3.922

> <ROCS_Overlap>
2288.042

> <ROCS_Rank>
332                 

$$$$
untitled-dbase-159623_694
  -OEChem-08222312023D

 46 47  0     1  0  0  0  0  0999 V2000
   -9.2113    4.3841  -15.8500 C   0  0  0  0  0  0  0  0  0  0  0  0
   -9.6536    4.5413  -17.1635 C   0  0  0  0  0  0  0  0  0  0  0  0
   -7.5098    5.4732  -17.7739 C   0  0  0  0  0  0  0  0  0  0  0  0
   -7.9182    4.7714  -15.4985 C   0  0  0  0  0  0  0  0  0  0  0  0
   -7.0675    5.3160  -16.4604 C   0  0  0  0  0  0  0  0  0  0  0  0
   -8.8029    5.0858  -18.1255 C   0  0  0  0  0  0  0  0  0  0  0  0
   -8.8635    4.5783   -9.9373 C   0  0  0  0  0  0  0  0  0  0  0  0
   -7.7094    5.8506  -13.2001 C   0  0  0  0  0  0  0  0  0  0  0  0
   -8.8160    5.6658  -12.1658 C   0  0  0  0  0  0  0  0  0  0  0  0
   -7.9736    3.3223  -11.9159 C   0  0  0  0  0  0  0  0  0  0  0  0
   -7.4586    4.5907  -14.0575 C   0  0  1  0  0  0  0  0  0  0  0  0
   -8.0845    3.3232  -13.4385 C   0  0  1  0  0  0  0  0  0  0  0  0
   -5.6795    5.7398  -16.1074 C   0  0  0  0  0  0  0  0  0  0  0  0
  -10.7134    4.2390   -7.7816 C   0  0  0  0  0  0  0  0  0  0  0  0
   -9.8536    1.8821   -7.6580 C   0  0  0  0  0  0  0  0  0  0  0  0
   -8.2950    3.8058   -7.2354 C   0  0  0  0  0  0  0  0  0  0  0  0
   -9.5128    3.3252   -8.0234 C   0  0  0  0  0  0  0  0  0  0  0  0
   -8.5602    4.5143  -11.3013 N   0  0  0  0  0  0  0  0  0  0  0  0
   -8.8362    5.6087   -9.2673 O   0  0  0  0  0  0  0  0  0  0  0  0
   -7.4307    2.1619  -13.9499 O   0  0  0  0  0  0  0  0  0  0  0  0
   -9.1929    3.3529   -9.4190 O   0  0  0  0  0  0  0  0  0  0  0  0
   -9.2272    5.2363  -19.3869 F   0  0  0  0  0  0  0  0  0  0  0  0
   -9.8820    3.9600  -15.1072 H   0  0  0  0  0  0  0  0  0  0  0  0
  -10.6608    4.2409  -17.4361 H   0  0  0  0  0  0  0  0  0  0  0  0
   -6.8552    5.8972  -18.5308 H   0  0  0  0  0  0  0  0  0  0  0  0
   -7.9678    6.7054  -13.8525 H   0  0  0  0  0  0  0  0  0  0  0  0
   -6.7761    6.1436  -12.6870 H   0  0  0  0  0  0  0  0  0  0  0  0
   -8.8862    6.5509  -11.5170 H   0  0  0  0  0  0  0  0  0  0  0  0
   -9.7847    5.5624  -12.6727 H   0  0  0  0  0  0  0  0  0  0  0  0
   -8.4192    2.3977  -11.5146 H   0  0  0  0  0  0  0  0  0  0  0  0
   -6.9140    3.2846  -11.6059 H   0  0  0  0  0  0  0  0  0  0  0  0
   -6.3460    4.4193  -14.1300 H   0  0  0  0  0  0  0  0  0  0  0  0
   -9.1544    3.2500  -13.7244 H   0  0  0  0  0  0  0  0  0  0  0  0
   -5.6721    6.7885  -15.7886 H   0  0  0  0  0  0  0  0  0  0  0  0
   -5.2717    5.1247  -15.2958 H   0  0  0  0  0  0  0  0  0  0  0  0
   -5.0018    5.6295  -16.9630 H   0  0  0  0  0  0  0  0  0  0  0  0
  -10.4729    5.2758   -8.0426 H   0  0  0  0  0  0  0  0  0  0  0  0
  -11.5834    3.9256   -8.3679 H   0  0  0  0  0  0  0  0  0  0  0  0
  -10.9938    4.2441   -6.7220 H   0  0  0  0  0  0  0  0  0  0  0  0
   -8.9950    1.2230   -7.8299 H   0  0  0  0  0  0  0  0  0  0  0  0
  -10.6659    1.5015   -8.2877 H   0  0  0  0  0  0  0  0  0  0  0  0
  -10.1559    1.7914   -6.6097 H   0  0  0  0  0  0  0  0  0  0  0  0
   -7.4337    3.1505   -7.4087 H   0  0  0  0  0  0  0  0  0  0  0  0
   -8.0133    4.8271   -7.5115 H   0  0  0  0  0  0  0  0  0  0  0  0
   -8.4925    3.7783   -6.1577 H   0  0  0  0  0  0  0  0  0  0  0  0
   -7.5223    2.1984  -14.9140 H   0  0  0  0  0  0  0  0  0  0  0  0
  1  2  1  0  0  0  0
  1  4  2  0  0  0  0
  2  6  2  0  0  0  0
  3  5  2  0  0  0  0
  3  6  1  0  0  0  0
  4  5  1  0  0  0  0
  4 11  1  0  0  0  0
  5 13  1  0  0  0  0
  6 22  1  0  0  0  0
  7 18  1  0  0  0  0
  7 19  2  0  0  0  0
  7 21  1  0  0  0  0
  8  9  1  0  0  0  0
  8 11  1  0  0  0  0
  9 18  1  0  0  0  0
 10 12  1  0  0  0  0
 10 18  1  0  0  0  0
 11 12  1  0  0  0  0
 12 20  1  0  0  0  0
 14 17  1  0  0  0  0
 15 17  1  0  0  0  0
 16 17  1  0  0  0  0
 17 21  1  0  0  0  0
  1 23  1  0  0  0  0
  2 24  1  0  0  0  0
  3 25  1  0  0  0  0
  8 26  1  0  0  0  0
  8 27  1  0  0  0  0
  9 28  1  0  0  0  0
  9 29  1  0  0  0  0
 10 30  1  0  0  0  0
 10 31  1  0  0  0  0
 11 32  1  0  0  0  0
 12 33  1  0  0  0  0
 13 34  1  0  0  0  0
 13 35  1  0  0  0  0
 13 36  1  0  0  0  0
 14 37  1  0  0  0  0
 14 38  1  0  0  0  0
 14 39  1  0  0  0  0
 15 40  1  0  0  0  0
 15 41  1  0  0  0  0
 15 42  1  0  0  0  0
 16 43  1  0  0  0  0
 16 44  1  0  0  0  0
 16 45  1  0  0  0  0
 20 46  1  0  0  0  0
M  END
> <id>
EN300-94560

> <smiles>
CC=1C=C(F)C=CC1C2CCN(CC2O)C(=O)OC(C)(C)C

> <MDLNUMBER>
MFCD20502203

> <IUPAC Name>
tert-butyl 4-(4-fluoro-2-methylphenyl)-3-hydroxypiperidine-1-carboxylate

> <CAS>
1354951-72-6

> <URL>
https://www.enaminestore.com/catalog/EN300-94560

> <ROCS_ShapeQuery>
_x0404_0B

> <ROCS_TanimotoCombo>
0.434 

> <ROCS_ShapeTanimoto>
0.344 

> <ROCS_ColorTanimoto>
0.090 

> <ROCS_RefTversky>
0.304 

> <ROCS_RefColorTversky>
0.094 

> <ROCS_RefTverskyCombo>
0.398 

> <ROCS_FitTversky>
1.603 

> <ROCS_FitColorTversky>
0.713 

> <ROCS_FitTverskyCombo>
2.316 

> <ROCS_ColorScore>
-6.763

> <ROCS_Overlap>
2032.034

> <ROCS_Rank>
333                 

$$$$
untitled-dbase-102642_124
  -OEChem-08222312023D

 36 38  0     0  0  0  0  0  0999 V2000
   -9.3198    4.8426  -17.2325 C   0  0  0  0  0  0  0  0  0  0  0  0
   -7.4178    6.0592  -16.4848 C   0  0  0  0  0  0  0  0  0  0  0  0
   -8.0258    5.2941  -17.4670 C   0  0  0  0  0  0  0  0  0  0  0  0
   -9.9572    5.1655  -16.0397 C   0  0  0  0  0  0  0  0  0  0  0  0
   -9.2627    5.9361  -15.1213 C   0  0  0  0  0  0  0  0  0  0  0  0
   -9.2227    3.0623   -8.8162 C   0  0  0  0  0  0  0  0  0  0  0  0
   -9.8524    6.3273  -13.8340 C   0  0  0  0  0  0  0  0  0  0  0  0
   -8.2783    4.2682   -8.6959 C   0  0  0  0  0  0  0  0  0  0  0  0
   -9.6286    5.9064  -10.2310 C   0  0  0  0  0  0  0  0  0  0  0  0
   -7.7101    4.5098  -11.2277 C   0  0  0  0  0  0  0  0  0  0  0  0
   -9.2798    6.7352  -11.4655 C   0  0  0  0  0  0  0  0  0  0  0  0
   -8.3520    4.7123  -12.5985 C   0  0  0  0  0  0  0  0  0  0  0  0
   -8.7614    4.6466  -10.1291 C   0  0  0  0  0  0  0  0  0  0  0  0
   -7.3167    4.9667  -18.7330 C   0  0  0  0  0  0  0  0  0  0  0  0
   -8.0050    6.3931  -15.3138 N   0  0  0  0  0  0  0  0  0  0  0  0
   -9.6022    3.4453  -10.0628 N   0  0  0  0  0  0  0  0  0  0  0  0
   -9.1965    5.9123  -12.6703 N   0  0  0  0  0  0  0  0  0  0  0  0
   -9.5385    2.1257   -8.1192 O   0  0  0  0  0  0  0  0  0  0  0  0
  -10.8832    6.9953  -13.8835 O   0  0  0  0  0  0  0  0  0  0  0  0
   -8.0542    4.2052  -19.5970 F   0  0  0  0  0  0  0  0  0  0  0  0
   -6.9488    6.0661  -19.4582 F   0  0  0  0  0  0  0  0  0  0  0  0
   -6.1623    4.2654  -18.5267 F   0  0  0  0  0  0  0  0  0  0  0  0
  -11.5588    4.6038  -15.7540 Cl  0  0  0  0  0  0  0  0  0  0  0  0
   -9.8250    4.2392  -17.9831 H   0  0  0  0  0  0  0  0  0  0  0  0
   -6.4088    6.4393  -16.6114 H   0  0  0  0  0  0  0  0  0  0  0  0
   -8.5528    4.9617   -7.8945 H   0  0  0  0  0  0  0  0  0  0  0  0
   -7.2237    3.9909   -8.5987 H   0  0  0  0  0  0  0  0  0  0  0  0
   -9.5211    6.5337   -9.3255 H   0  0  0  0  0  0  0  0  0  0  0  0
  -10.6992    5.6257  -10.2729 H   0  0  0  0  0  0  0  0  0  0  0  0
   -7.2433    3.5123  -11.1889 H   0  0  0  0  0  0  0  0  0  0  0  0
   -6.8960    5.2389  -11.0928 H   0  0  0  0  0  0  0  0  0  0  0  0
  -10.0210    7.5386  -11.5946 H   0  0  0  0  0  0  0  0  0  0  0  0
   -8.3001    7.2239  -11.3393 H   0  0  0  0  0  0  0  0  0  0  0  0
   -7.5721    4.8264  -13.3766 H   0  0  0  0  0  0  0  0  0  0  0  0
   -8.9187    3.8044  -12.8724 H   0  0  0  0  0  0  0  0  0  0  0  0
  -10.2538    3.0195  -10.7074 H   0  0  0  0  0  0  0  0  0  0  0  0
  1  3  1  0  0  0  0
  1  4  2  0  0  0  0
  2  3  2  0  0  0  0
  2 15  1  0  0  0  0
  3 14  1  0  0  0  0
  4  5  1  0  0  0  0
  4 23  1  0  0  0  0
  5  7  1  0  0  0  0
  5 15  2  0  0  0  0
  6  8  1  0  0  0  0
  6 16  1  0  0  0  0
  6 18  2  0  0  0  0
  7 17  1  0  0  0  0
  7 19  2  0  0  0  0
  8 13  1  0  0  0  0
  9 11  1  0  0  0  0
  9 13  1  0  0  0  0
 10 12  1  0  0  0  0
 10 13  1  0  0  0  0
 11 17  1  0  0  0  0
 12 17  1  0  0  0  0
 13 16  1  0  0  0  0
 14 20  1  0  0  0  0
 14 21  1  0  0  0  0
 14 22  1  0  0  0  0
  1 24  1  0  0  0  0
  2 25  1  0  0  0  0
  8 26  1  0  0  0  0
  8 27  1  0  0  0  0
  9 28  1  0  0  0  0
  9 29  1  0  0  0  0
 10 30  1  0  0  0  0
 10 31  1  0  0  0  0
 11 32  1  0  0  0  0
 11 33  1  0  0  0  0
 12 34  1  0  0  0  0
 12 35  1  0  0  0  0
 16 36  1  0  0  0  0
M  END
> <id>
EN300-26603247

> <smiles>
FC(F)(F)C=1C=NC(C(=O)N2CCC3(CC(=O)N3)CC2)=C(Cl)C1

> <IUPAC Name>
7-[3-chloro-5-(trifluoromethyl)pyridine-2-carbonyl]-1,7-diazaspiro[3.5]nonan-2-one

> <CAS>
2249579-06-2

> <URL>
https://www.enaminestore.com/catalog/EN300-26603247

> <ROCS_ShapeQuery>
_x0404_0B

> <ROCS_TanimotoCombo>
0.434 

> <ROCS_ShapeTanimoto>
0.358 

> <ROCS_ColorTanimoto>
0.077 

> <ROCS_RefTversky>
0.316 

> <ROCS_RefColorTversky>
0.081 

> <ROCS_RefTverskyCombo>
0.398 

> <ROCS_FitTversky>
1.574 

> <ROCS_FitColorTversky>
0.563 

> <ROCS_FitTverskyCombo>
2.137 

> <ROCS_ColorScore>
-5.870

> <ROCS_Overlap>
2112.201

> <ROCS_Rank>
334                 

$$$$
untitled-dbase-45642_209
  -OEChem-08222312023D

 47 48  0     1  0  0  0  0  0999 V2000
   -9.3286    5.0630  -15.7212 C   0  0  0  0  0  0  0  0  0  0  0  0
   -9.7167    5.2222  -17.0514 C   0  0  0  0  0  0  0  0  0  0  0  0
   -7.0187    4.9115  -16.4132 C   0  0  0  0  0  0  0  0  0  0  0  0
   -7.9796    4.9077  -15.4021 C   0  0  0  0  0  0  0  0  0  0  0  0
   -7.4069    5.0707  -17.7435 C   0  0  0  0  0  0  0  0  0  0  0  0
   -8.7559    5.2260  -18.0626 C   0  0  0  0  0  0  0  0  0  0  0  0
   -8.8945    4.6862   -9.8181 C   0  0  0  0  0  0  0  0  0  0  0  0
   -7.8905    5.9867  -13.1053 C   0  0  0  0  0  0  0  0  0  0  0  0
   -8.9753    5.7390  -12.0624 C   0  0  0  0  0  0  0  0  0  0  0  0
   -8.0066    3.4419  -11.8079 C   0  0  0  0  0  0  0  0  0  0  0  0
   -7.5560    4.7343  -13.9495 C   0  0  1  0  0  0  0  0  0  0  0  0
   -8.1391    3.4372  -13.3340 C   0  0  1  0  0  0  0  0  0  0  0  0
  -10.6540    4.2868   -7.5976 C   0  0  0  0  0  0  0  0  0  0  0  0
   -9.6722    1.9783   -7.4711 C   0  0  0  0  0  0  0  0  0  0  0  0
   -8.2003    3.9840   -7.1261 C   0  0  0  0  0  0  0  0  0  0  0  0
   -6.3775    5.0732  -18.8229 C   0  0  0  0  0  0  0  0  0  0  0  0
   -9.4171    3.4311   -7.8668 C   0  0  0  0  0  0  0  0  0  0  0  0
   -8.6333    4.6161  -11.1906 N   0  0  0  0  0  0  0  0  0  0  0  0
   -7.4697    2.2578  -13.8920 N   0  0  0  0  0  0  0  0  0  0  0  0
   -8.8979    5.7266   -9.1631 O   0  0  0  0  0  0  0  0  0  0  0  0
   -9.1443    3.4538   -9.2725 O   0  0  0  0  0  0  0  0  0  0  0  0
   -9.1387    5.3781  -19.3382 F   0  0  0  0  0  0  0  0  0  0  0  0
   -5.1016    4.9107  -18.3629 F   0  0  0  0  0  0  0  0  0  0  0  0
   -6.5518    4.0825  -19.7468 F   0  0  0  0  0  0  0  0  0  0  0  0
   -6.3648    6.2385  -19.5335 F   0  0  0  0  0  0  0  0  0  0  0  0
  -10.0841    5.0623  -14.9400 H   0  0  0  0  0  0  0  0  0  0  0  0
  -10.7666    5.3450  -17.3004 H   0  0  0  0  0  0  0  0  0  0  0  0
   -5.9672    4.7897  -16.1642 H   0  0  0  0  0  0  0  0  0  0  0  0
   -8.2094    6.8129  -13.7674 H   0  0  0  0  0  0  0  0  0  0  0  0
   -6.9776    6.3494  -12.6003 H   0  0  0  0  0  0  0  0  0  0  0  0
   -9.0952    6.6233  -11.4195 H   0  0  0  0  0  0  0  0  0  0  0  0
   -9.9368    5.5799  -12.5658 H   0  0  0  0  0  0  0  0  0  0  0  0
   -8.4371    2.5188  -11.3851 H   0  0  0  0  0  0  0  0  0  0  0  0
   -6.9455    3.4558  -11.5016 H   0  0  0  0  0  0  0  0  0  0  0  0
   -6.4328    4.6320  -13.9765 H   0  0  0  0  0  0  0  0  0  0  0  0
   -9.2075    3.3649  -13.5982 H   0  0  0  0  0  0  0  0  0  0  0  0
  -10.4750    5.3304   -7.8803 H   0  0  0  0  0  0  0  0  0  0  0  0
  -11.5255    3.9213   -8.1505 H   0  0  0  0  0  0  0  0  0  0  0  0
  -10.8998    4.2938   -6.5295 H   0  0  0  0  0  0  0  0  0  0  0  0
   -8.7872    1.3607   -7.6625 H   0  0  0  0  0  0  0  0  0  0  0  0
  -10.4841    1.5479   -8.0684 H   0  0  0  0  0  0  0  0  0  0  0  0
   -9.9354    1.8882   -6.4122 H   0  0  0  0  0  0  0  0  0  0  0  0
   -7.3129    3.3704   -7.3191 H   0  0  0  0  0  0  0  0  0  0  0  0
   -7.9799    5.0139   -7.4251 H   0  0  0  0  0  0  0  0  0  0  0  0
   -8.3612    3.9629   -6.0422 H   0  0  0  0  0  0  0  0  0  0  0  0
   -7.8853    1.4529  -13.4909 H   0  0  0  0  0  0  0  0  0  0  0  0
   -7.5979    2.2713  -14.8744 H   0  0  0  0  0  0  0  0  0  0  0  0
  1  2  1  0  0  0  0
  1  4  2  0  0  0  0
  2  6  2  0  0  0  0
  3  4  1  0  0  0  0
  3  5  2  0  0  0  0
  4 11  1  0  0  0  0
  5  6  1  0  0  0  0
  5 16  1  0  0  0  0
  6 22  1  0  0  0  0
  7 18  1  0  0  0  0
  7 20  2  0  0  0  0
  7 21  1  0  0  0  0
  8  9  1  0  0  0  0
  8 11  1  0  0  0  0
  9 18  1  0  0  0  0
 10 12  1  0  0  0  0
 10 18  1  0  0  0  0
 11 12  1  0  0  0  0
 12 19  1  0  0  0  0
 13 17  1  0  0  0  0
 14 17  1  0  0  0  0
 15 17  1  0  0  0  0
 16 23  1  0  0  0  0
 16 24  1  0  0  0  0
 16 25  1  0  0  0  0
 17 21  1  0  0  0  0
  1 26  1  0  0  0  0
  2 27  1  0  0  0  0
  3 28  1  0  0  0  0
  8 29  1  0  0  0  0
  8 30  1  0  0  0  0
  9 31  1  0  0  0  0
  9 32  1  0  0  0  0
 10 33  1  0  0  0  0
 10 34  1  0  0  0  0
 11 35  1  0  0  0  0
 12 36  1  0  0  0  0
 13 37  1  0  0  0  0
 13 38  1  0  0  0  0
 13 39  1  0  0  0  0
 14 40  1  0  0  0  0
 14 41  1  0  0  0  0
 14 42  1  0  0  0  0
 15 43  1  0  0  0  0
 15 44  1  0  0  0  0
 15 45  1  0  0  0  0
 19 46  1  0  0  0  0
 19 47  1  0  0  0  0
M  END
> <id>
EN300-94545

> <smiles>
CC(C)(C)OC(=O)N1CCC(C(N)C1)C=2C=CC(F)=C(C2)C(F)(F)F

> <MDLNUMBER>
MFCD20502190

> <IUPAC Name>
tert-butyl 3-amino-4-[4-fluoro-3-(trifluoromethyl)phenyl]piperidine-1-carboxylate

> <CAS>
1354963-24-8

> <URL>
https://www.enaminestore.com/catalog/EN300-94545

> <ROCS_ShapeQuery>
_x0404_0B

> <ROCS_TanimotoCombo>
0.434 

> <ROCS_ShapeTanimoto>
0.379 

> <ROCS_ColorTanimoto>
0.055 

> <ROCS_RefTversky>
0.333 

> <ROCS_RefColorTversky>
0.059 

> <ROCS_RefTverskyCombo>
0.392 

> <ROCS_FitTversky>
1.577 

> <ROCS_FitColorTversky>
0.452 

> <ROCS_FitTverskyCombo>
2.029 

> <ROCS_ColorScore>
-4.287

> <ROCS_Overlap>
2221.683

> <ROCS_Rank>
335                 

$$$$
untitled-dbase-139297_546
  -OEChem-08222312023D

 42 44  0     0  0  0  0  0  0999 V2000
   -7.2721    5.1823  -16.5145 C   0  0  0  0  0  0  0  0  0  0  0  0
   -9.4851    4.2218  -16.6456 C   0  0  0  0  0  0  0  0  0  0  0  0
   -7.2488    5.3180  -17.9025 C   0  0  0  0  0  0  0  0  0  0  0  0
   -9.4618    4.3575  -18.0336 C   0  0  0  0  0  0  0  0  0  0  0  0
   -8.3903    4.6341  -15.8860 C   0  0  0  0  0  0  0  0  0  0  0  0
   -8.3436    4.9057  -18.6621 C   0  0  0  0  0  0  0  0  0  0  0  0
   -8.4152    4.4916  -14.4312 C   0  0  0  0  0  0  0  0  0  0  0  0
   -8.8503    5.3682  -13.5155 C   0  0  0  0  0  0  0  0  0  0  0  0
   -7.9594    3.2826  -13.6926 C   0  0  0  0  0  0  0  0  0  0  0  0
   -9.2635    5.5210   -8.8796 C   0  0  0  0  0  0  0  0  0  0  0  0
   -9.9453    4.8755  -11.2563 C   0  0  0  0  0  0  0  0  0  0  0  0
   -7.9694    5.7014  -11.1374 C   0  0  0  0  0  0  0  0  0  0  0  0
   -8.7020    4.8140  -12.1631 C   0  0  0  0  0  0  0  0  0  0  0  0
   -9.0947    4.6187   -6.0926 C   0  0  0  0  0  0  0  0  0  0  0  0
  -10.5782    2.7342   -6.8391 C   0  0  0  0  0  0  0  0  0  0  0  0
   -8.2725    2.9694   -7.8068 C   0  0  0  0  0  0  0  0  0  0  0  0
   -9.4885    3.7170   -7.2617 C   0  0  0  0  0  0  0  0  0  0  0  0
   -9.0853    5.4633  -10.2416 N   0  0  0  0  0  0  0  0  0  0  0  0
   -7.4919    2.2722  -14.1888 O   0  0  0  0  0  0  0  0  0  0  0  0
   -8.8202    6.4359   -8.1857 O   0  0  0  0  0  0  0  0  0  0  0  0
   -8.1406    3.4953  -12.3536 O   0  0  0  0  0  0  0  0  0  0  0  0
   -9.3956    6.6042  -13.7004 O   0  0  0  0  0  0  0  0  0  0  0  0
  -10.0287    4.5375   -8.3101 O   0  0  0  0  0  0  0  0  0  0  0  0
   -8.3220    5.0376  -19.9948 F   0  0  0  0  0  0  0  0  0  0  0  0
   -6.4113    5.5085  -15.9356 H   0  0  0  0  0  0  0  0  0  0  0  0
  -10.3641    3.7926  -16.1705 H   0  0  0  0  0  0  0  0  0  0  0  0
   -6.3785    5.7448  -18.3920 H   0  0  0  0  0  0  0  0  0  0  0  0
  -10.3143    4.0370  -18.6253 H   0  0  0  0  0  0  0  0  0  0  0  0
  -10.7558    5.5423  -11.5614 H   0  0  0  0  0  0  0  0  0  0  0  0
  -10.3558    3.9075  -10.9574 H   0  0  0  0  0  0  0  0  0  0  0  0
   -7.0247    5.2977  -10.7626 H   0  0  0  0  0  0  0  0  0  0  0  0
   -7.8447    6.7581  -11.3896 H   0  0  0  0  0  0  0  0  0  0  0  0
   -8.3127    5.3257   -6.3920 H   0  0  0  0  0  0  0  0  0  0  0  0
   -9.9511    5.1868   -5.7151 H   0  0  0  0  0  0  0  0  0  0  0  0
   -8.6792    4.0295   -5.2671 H   0  0  0  0  0  0  0  0  0  0  0  0
  -10.8638    2.0852   -7.6748 H   0  0  0  0  0  0  0  0  0  0  0  0
  -11.4875    3.2660   -6.5365 H   0  0  0  0  0  0  0  0  0  0  0  0
  -10.2521    2.1032   -6.0059 H   0  0  0  0  0  0  0  0  0  0  0  0
   -8.5547    2.3226   -8.6454 H   0  0  0  0  0  0  0  0  0  0  0  0
   -7.4948    3.6597   -8.1493 H   0  0  0  0  0  0  0  0  0  0  0  0
   -7.8431    2.3132   -7.0411 H   0  0  0  0  0  0  0  0  0  0  0  0
   -9.4474    6.8171  -14.6430 H   0  0  0  0  0  0  0  0  0  0  0  0
  1  3  1  0  0  0  0
  1  5  2  0  0  0  0
  2  4  2  0  0  0  0
  2  5  1  0  0  0  0
  3  6  2  0  0  0  0
  4  6  1  0  0  0  0
  5  7  1  0  0  0  0
  6 24  1  0  0  0  0
  7  8  2  0  0  0  0
  7  9  1  0  0  0  0
  8 13  1  0  0  0  0
  8 22  1  0  0  0  0
  9 19  2  0  0  0  0
  9 21  1  0  0  0  0
 10 18  1  0  0  0  0
 10 20  2  0  0  0  0
 10 23  1  0  0  0  0
 11 13  1  0  0  0  0
 11 18  1  0  0  0  0
 12 13  1  0  0  0  0
 12 18  1  0  0  0  0
 13 21  1  0  0  0  0
 14 17  1  0  0  0  0
 15 17  1  0  0  0  0
 16 17  1  0  0  0  0
 17 23  1  0  0  0  0
  1 25  1  0  0  0  0
  2 26  1  0  0  0  0
  3 27  1  0  0  0  0
  4 28  1  0  0  0  0
 11 29  1  0  0  0  0
 11 30  1  0  0  0  0
 12 31  1  0  0  0  0
 12 32  1  0  0  0  0
 14 33  1  0  0  0  0
 14 34  1  0  0  0  0
 14 35  1  0  0  0  0
 15 36  1  0  0  0  0
 15 37  1  0  0  0  0
 15 38  1  0  0  0  0
 16 39  1  0  0  0  0
 16 40  1  0  0  0  0
 16 41  1  0  0  0  0
 22 42  1  0  0  0  0
M  END
> <id>
EN300-1647726

> <smiles>
CC(C)(C)OC(=O)N1CC2(C1)OC(=O)C(=C2O)C=3C=CC(F)=CC3

> <IUPAC Name>
tert-butyl 7-(4-fluorophenyl)-8-hydroxy-6-oxo-5-oxa-2-azaspiro[3.4]oct-7-ene-2-carboxylate

> <CAS>
2172565-53-4

> <URL>
https://www.enaminestore.com/catalog/EN300-1647726

> <ROCS_ShapeQuery>
_x0404_0B

> <ROCS_TanimotoCombo>
0.434 

> <ROCS_ShapeTanimoto>
0.357 

> <ROCS_ColorTanimoto>
0.077 

> <ROCS_RefTversky>
0.318 

> <ROCS_RefColorTversky>
0.082 

> <ROCS_RefTverskyCombo>
0.400 

> <ROCS_FitTversky>
1.522 

> <ROCS_FitColorTversky>
0.566 

> <ROCS_FitTverskyCombo>
2.088 

> <ROCS_ColorScore>
-5.908

> <ROCS_Overlap>
2124.200

> <ROCS_Rank>
336                 

$$$$
untitled-dbase-37456_1341
  -OEChem-08222312023D

 45 47  0     1  0  0  0  0  0999 V2000
   -8.8806    4.2113   -8.9237 C   0  0  0  0  0  0  0  0  0  0  0  0
   -8.9837    5.9765  -10.0558 C   0  0  0  0  0  0  0  0  0  0  0  0
   -8.3964    5.2146  -16.2705 C   0  0  0  0  0  0  0  0  0  0  0  0
   -9.8041    4.4710  -13.0225 C   0  0  0  0  0  0  0  0  0  0  0  0
  -10.0461    5.1536  -14.3651 C   0  0  0  0  0  0  0  0  0  0  0  0
   -8.9952    7.4237  -12.0331 C   0  0  0  0  0  0  0  0  0  0  0  0
   -7.9963    6.5435  -14.2227 C   0  0  0  0  0  0  0  0  0  0  0  0
   -8.0874    6.3683  -12.6989 C   0  0  2  0  0  0  0  0  0  0  0  0
   -8.5310    4.9456  -12.2992 C   0  0  1  0  0  0  0  0  0  0  0  0
   -8.0589    7.0108  -18.4725 C   0  0  0  0  0  0  0  0  0  0  0  0
   -5.5967    6.6043  -18.1868 C   0  0  0  0  0  0  0  0  0  0  0  0
   -7.1179    4.6975  -18.7850 C   0  0  0  0  0  0  0  0  0  0  0  0
   -8.9097    3.3185   -7.7593 C   0  0  0  0  0  0  0  0  0  0  0  0
   -6.9946    6.0132  -18.0178 C   0  0  0  0  0  0  0  0  0  0  0  0
   -9.0929    5.5586   -8.8123 N   0  0  0  0  0  0  0  0  0  0  0  0
   -8.6426    3.7584  -10.1571 N   0  0  0  0  0  0  0  0  0  0  0  0
   -8.7143    4.8998  -10.8565 N   0  0  0  0  0  0  0  0  0  0  0  0
   -9.0721    7.2129  -10.5928 N   0  0  0  0  0  0  0  0  0  0  0  0
   -8.7957    5.5831  -14.9810 N   0  0  0  0  0  0  0  0  0  0  0  0
   -9.0555    4.4927  -17.0170 O   0  0  0  0  0  0  0  0  0  0  0  0
   -9.3525    2.0141   -8.1451 O   0  0  0  0  0  0  0  0  0  0  0  0
   -7.1851    5.7475  -16.6234 O   0  0  0  0  0  0  0  0  0  0  0  0
  -10.6902    4.6254  -12.3761 H   0  0  0  0  0  0  0  0  0  0  0  0
   -9.7553    3.3763  -13.1768 H   0  0  0  0  0  0  0  0  0  0  0  0
  -10.5357    4.4595  -15.0639 H   0  0  0  0  0  0  0  0  0  0  0  0
  -10.7272    6.0049  -14.2309 H   0  0  0  0  0  0  0  0  0  0  0  0
   -8.6009    8.4280  -12.2238 H   0  0  0  0  0  0  0  0  0  0  0  0
  -10.0088    7.3927  -12.4486 H   0  0  0  0  0  0  0  0  0  0  0  0
   -8.2503    7.5838  -14.4958 H   0  0  0  0  0  0  0  0  0  0  0  0
   -6.9472    6.4025  -14.5463 H   0  0  0  0  0  0  0  0  0  0  0  0
   -7.0659    6.5298  -12.2933 H   0  0  0  0  0  0  0  0  0  0  0  0
   -7.7086    4.2456  -12.5264 H   0  0  0  0  0  0  0  0  0  0  0  0
   -9.0637    6.5902  -18.3528 H   0  0  0  0  0  0  0  0  0  0  0  0
   -8.0036    7.9460  -17.9058 H   0  0  0  0  0  0  0  0  0  0  0  0
   -7.9464    7.2444  -19.5375 H   0  0  0  0  0  0  0  0  0  0  0  0
   -4.8299    5.8919  -17.8617 H   0  0  0  0  0  0  0  0  0  0  0  0
   -5.4725    7.4972  -17.5634 H   0  0  0  0  0  0  0  0  0  0  0  0
   -5.3968    6.8778  -19.2279 H   0  0  0  0  0  0  0  0  0  0  0  0
   -6.3546    3.9817  -18.4590 H   0  0  0  0  0  0  0  0  0  0  0  0
   -8.1028    4.2400  -18.6454 H   0  0  0  0  0  0  0  0  0  0  0  0
   -6.9561    4.8551  -19.8575 H   0  0  0  0  0  0  0  0  0  0  0  0
   -7.9152    3.2067   -7.2848 H   0  0  0  0  0  0  0  0  0  0  0  0
   -9.5908    3.6836   -6.9661 H   0  0  0  0  0  0  0  0  0  0  0  0
   -9.2887    8.0206  -10.0154 H   0  0  0  0  0  0  0  0  0  0  0  0
   -8.7179    1.6964   -8.8038 H   0  0  0  0  0  0  0  0  0  0  0  0
  1 13  1  0  0  0  0
  1 15  1  0  0  0  0
  1 16  2  0  0  0  0
  2 15  2  0  0  0  0
  2 17  1  0  0  0  0
  2 18  1  0  0  0  0
  3 19  1  0  0  0  0
  3 20  2  0  0  0  0
  3 22  1  0  0  0  0
  4  5  1  0  0  0  0
  4  9  1  0  0  0  0
  5 19  1  0  0  0  0
  6  8  1  0  0  0  0
  6 18  1  0  0  0  0
  7  8  1  0  0  0  0
  7 19  1  0  0  0  0
  8  9  1  0  0  0  0
  9 17  1  0  0  0  0
 10 14  1  0  0  0  0
 11 14  1  0  0  0  0
 12 14  1  0  0  0  0
 13 21  1  0  0  0  0
 14 22  1  0  0  0  0
 16 17  1  0  0  0  0
  4 23  1  0  0  0  0
  4 24  1  0  0  0  0
  5 25  1  0  0  0  0
  5 26  1  0  0  0  0
  6 27  1  0  0  0  0
  6 28  1  0  0  0  0
  7 29  1  0  0  0  0
  7 30  1  0  0  0  0
  8 31  1  0  0  0  0
  9 32  1  0  0  0  0
 10 33  1  0  0  0  0
 10 34  1  0  0  0  0
 10 35  1  0  0  0  0
 11 36  1  0  0  0  0
 11 37  1  0  0  0  0
 11 38  1  0  0  0  0
 12 39  1  0  0  0  0
 12 40  1  0  0  0  0
 12 41  1  0  0  0  0
 13 42  1  0  0  0  0
 13 43  1  0  0  0  0
 18 44  1  0  0  0  0
 21 45  1  0  0  0  0
M  END
> <id>
EN300-1118775

> <smiles>
CC(C)(C)OC(=O)N1CCC2C(CNC3=NC(CO)=NN23)C1

> <IUPAC Name>
tert-butyl 4-(hydroxymethyl)-2,3,5,7,11-pentaazatricyclo[7.4.0.0,2,6]trideca-3,5-diene-11-carboxylate

> <CAS>
1696046-29-3

> <URL>
https://www.enaminestore.com/catalog/EN300-1118775

> <ROCS_ShapeQuery>
_x0404_0B

> <ROCS_TanimotoCombo>
0.434 

> <ROCS_ShapeTanimoto>
0.370 

> <ROCS_ColorTanimoto>
0.064 

> <ROCS_RefTversky>
0.322 

> <ROCS_RefColorTversky>
0.072 

> <ROCS_RefTverskyCombo>
0.394 

> <ROCS_FitTversky>
1.652 

> <ROCS_FitColorTversky>
0.389 

> <ROCS_FitTverskyCombo>
2.041 

> <ROCS_ColorScore>
-5.185

> <ROCS_Overlap>
2152.729

> <ROCS_Rank>
337                 

$$$$
untitled-dbase-92291_434
  -OEChem-08222312023D

 47 49  0     1  0  0  0  0  0999 V2000
   -7.6603    4.4851  -18.0385 C   0  0  0  0  0  0  0  0  0  0  0  0
   -9.0082    4.2431  -18.1605 C   0  0  0  0  0  0  0  0  0  0  0  0
   -8.7755    5.2373  -16.2930 C   0  0  0  0  0  0  0  0  0  0  0  0
   -9.1541    5.2273   -9.1257 C   0  0  0  0  0  0  0  0  0  0  0  0
  -10.4745    5.9481  -14.4761 C   0  0  0  0  0  0  0  0  0  0  0  0
  -10.3829    6.2999  -12.9946 C   0  0  0  0  0  0  0  0  0  0  0  0
   -8.3075    5.1889  -13.7688 C   0  0  0  0  0  0  0  0  0  0  0  0
   -8.3614    6.2533  -11.3605 C   0  0  0  0  0  0  0  0  0  0  0  0
   -9.3839    4.3820  -11.5382 C   0  0  0  0  0  0  0  0  0  0  0  0
   -9.0122    5.8991  -14.9480 C   0  0  1  0  0  0  0  0  0  0  0  0
   -9.1273    5.5592  -12.5196 C   0  0  0  0  0  0  0  0  0  0  0  0
   -8.7958    3.9494   -6.5979 C   0  0  0  0  0  0  0  0  0  0  0  0
  -10.0723    2.0297   -7.5953 C   0  0  0  0  0  0  0  0  0  0  0  0
   -7.8748    2.7238   -8.5939 C   0  0  0  0  0  0  0  0  0  0  0  0
   -6.2848    5.5855  -16.2645 C   0  0  0  0  0  0  0  0  0  0  0  0
   -9.1410    3.2045   -7.8866 C   0  0  0  0  0  0  0  0  0  0  0  0
   -9.6969    4.7141  -17.0708 N   0  0  0  0  0  0  0  0  0  0  0  0
   -7.5266    5.1229  -16.8375 N   0  0  0  0  0  0  0  0  0  0  0  0
   -8.9955    5.2924  -10.4816 N   0  0  0  0  0  0  0  0  0  0  0  0
   -8.7351    6.0729   -8.3403 O   0  0  0  0  0  0  0  0  0  0  0  0
   -8.5109    7.2341  -15.0735 O   0  0  0  0  0  0  0  0  0  0  0  0
   -9.8378    4.1014   -8.7585 O   0  0  0  0  0  0  0  0  0  0  0  0
   -9.8409    3.3835  -19.6122 Br  0  0  0  0  0  0  0  0  0  0  0  0
   -6.8137    4.2682  -18.6758 H   0  0  0  0  0  0  0  0  0  0  0  0
  -10.9572    4.9692  -14.5933 H   0  0  0  0  0  0  0  0  0  0  0  0
  -11.0679    6.6933  -15.0164 H   0  0  0  0  0  0  0  0  0  0  0  0
  -10.2610    7.3840  -12.8847 H   0  0  0  0  0  0  0  0  0  0  0  0
  -11.2897    6.0114  -12.4542 H   0  0  0  0  0  0  0  0  0  0  0  0
   -8.3197    4.1014  -13.9144 H   0  0  0  0  0  0  0  0  0  0  0  0
   -7.2631    5.5077  -13.6771 H   0  0  0  0  0  0  0  0  0  0  0  0
   -7.2721    6.1494  -11.3682 H   0  0  0  0  0  0  0  0  0  0  0  0
   -8.6353    7.2914  -11.1559 H   0  0  0  0  0  0  0  0  0  0  0  0
  -10.4156    4.0288  -11.4667 H   0  0  0  0  0  0  0  0  0  0  0  0
   -8.7021    3.5292  -11.6148 H   0  0  0  0  0  0  0  0  0  0  0  0
   -8.1275    4.7934   -6.8027 H   0  0  0  0  0  0  0  0  0  0  0  0
   -9.6932    4.3296   -6.0990 H   0  0  0  0  0  0  0  0  0  0  0  0
   -8.2622    3.2951   -5.8990 H   0  0  0  0  0  0  0  0  0  0  0  0
  -10.3226    1.4924   -8.5172 H   0  0  0  0  0  0  0  0  0  0  0  0
  -11.0219    2.3795   -7.1744 H   0  0  0  0  0  0  0  0  0  0  0  0
   -9.6216    1.3214   -6.8927 H   0  0  0  0  0  0  0  0  0  0  0  0
   -8.1221    2.1895   -9.5184 H   0  0  0  0  0  0  0  0  0  0  0  0
   -7.2111    3.5579   -8.8439 H   0  0  0  0  0  0  0  0  0  0  0  0
   -7.3225    2.0156   -7.9657 H   0  0  0  0  0  0  0  0  0  0  0  0
   -6.1180    6.6111  -16.6041 H   0  0  0  0  0  0  0  0  0  0  0  0
   -6.3517    5.5501  -15.1735 H   0  0  0  0  0  0  0  0  0  0  0  0
   -5.4701    4.9350  -16.5945 H   0  0  0  0  0  0  0  0  0  0  0  0
   -9.0143    7.6583  -15.7878 H   0  0  0  0  0  0  0  0  0  0  0  0
  1  2  2  0  0  0  0
  1 18  1  0  0  0  0
  2 17  1  0  0  0  0
  2 23  1  0  0  0  0
  3 10  1  0  0  0  0
  3 17  2  0  0  0  0
  3 18  1  0  0  0  0
  4 19  1  0  0  0  0
  4 20  2  0  0  0  0
  4 22  1  0  0  0  0
  5  6  1  0  0  0  0
  5 10  1  0  0  0  0
  6 11  1  0  0  0  0
  7 10  1  0  0  0  0
  7 11  1  0  0  0  0
  8 11  1  0  0  0  0
  8 19  1  0  0  0  0
  9 11  1  0  0  0  0
  9 19  1  0  0  0  0
 10 21  1  0  0  0  0
 12 16  1  0  0  0  0
 13 16  1  0  0  0  0
 14 16  1  0  0  0  0
 15 18  1  0  0  0  0
 16 22  1  0  0  0  0
  1 24  1  0  0  0  0
  5 25  1  0  0  0  0
  5 26  1  0  0  0  0
  6 27  1  0  0  0  0
  6 28  1  0  0  0  0
  7 29  1  0  0  0  0
  7 30  1  0  0  0  0
  8 31  1  0  0  0  0
  8 32  1  0  0  0  0
  9 33  1  0  0  0  0
  9 34  1  0  0  0  0
 12 35  1  0  0  0  0
 12 36  1  0  0  0  0
 12 37  1  0  0  0  0
 13 38  1  0  0  0  0
 13 39  1  0  0  0  0
 13 40  1  0  0  0  0
 14 41  1  0  0  0  0
 14 42  1  0  0  0  0
 14 43  1  0  0  0  0
 15 44  1  0  0  0  0
 15 45  1  0  0  0  0
 15 46  1  0  0  0  0
 21 47  1  0  0  0  0
M  END
> <id>
EN300-7429053

> <smiles>
CN1C=C(Br)N=C1C2(O)CCC3(CN(C3)C(=O)OC(C)(C)C)C2

> <IUPAC Name>
tert-butyl 6-(4-bromo-1-methyl-1H-imidazol-2-yl)-6-hydroxy-2-azaspiro[3.4]octane-2-carboxylate

> <CAS>
2309449-36-1

> <URL>
https://www.enaminestore.com/catalog/EN300-7429053

> <ROCS_ShapeQuery>
_x0404_0B

> <ROCS_TanimotoCombo>
0.434 

> <ROCS_ShapeTanimoto>
0.370 

> <ROCS_ColorTanimoto>
0.064 

> <ROCS_RefTversky>
0.324 

> <ROCS_RefColorTversky>
0.071 

> <ROCS_RefTverskyCombo>
0.395 

> <ROCS_FitTversky>
1.627 

> <ROCS_FitColorTversky>
0.389 

> <ROCS_FitTverskyCombo>
2.016 

> <ROCS_ColorScore>
-5.169

> <ROCS_Overlap>
2160.504

> <ROCS_Rank>
338                 

$$$$
untitled-dbase-46770_2193
  -OEChem-08222312023D

 46 48  0     1  0  0  0  0  0999 V2000
   -7.5431    5.4553  -18.4733 C   0  0  0  0  0  0  0  0  0  0  0  0
   -7.5041    6.2762  -17.3460 C   0  0  0  0  0  0  0  0  0  0  0  0
   -8.2501    4.2585  -18.4117 C   0  0  0  0  0  0  0  0  0  0  0  0
   -8.1905    5.8346  -16.2076 C   0  0  0  0  0  0  0  0  0  0  0  0
   -8.8558    4.6188  -16.2845 C   0  0  0  0  0  0  0  0  0  0  0  0
   -9.0906    5.5354  -14.2965 C   0  0  0  0  0  0  0  0  0  0  0  0
   -8.6129    5.0319   -8.8376 C   0  0  0  0  0  0  0  0  0  0  0  0
   -8.5321    7.4724  -11.7777 C   0  0  0  0  0  0  0  0  0  0  0  0
   -9.8300    6.8885  -12.3422 C   0  0  0  0  0  0  0  0  0  0  0  0
   -8.1729    6.9672  -10.3777 C   0  0  0  0  0  0  0  0  0  0  0  0
   -9.4129    4.4508  -12.0748 C   0  0  0  0  0  0  0  0  0  0  0  0
   -8.1491    4.5814  -11.2239 C   0  0  0  0  0  0  0  0  0  0  0  0
  -10.7314    4.1506   -7.5634 C   0  0  0  0  0  0  0  0  0  0  0  0
  -10.2101    1.8368   -8.3904 C   0  0  0  0  0  0  0  0  0  0  0  0
   -8.8270    2.8501   -6.5551 C   0  0  0  0  0  0  0  0  0  0  0  0
   -9.6251    3.1303   -7.8277 C   0  0  0  0  0  0  0  0  0  0  0  0
   -8.9289    3.7878  -17.3372 N   0  0  0  0  0  0  0  0  0  0  0  0
   -8.3466    6.3931  -14.9623 N   0  0  0  0  0  0  0  0  0  0  0  0
   -9.4243    4.4450  -15.0543 N   0  0  0  0  0  0  0  0  0  0  0  0
   -9.5592    5.5933  -12.9801 N   0  0  2  0  0  0  0  0  0  0  0  0
   -8.3365    5.5297  -10.1224 N   0  0  0  0  0  0  0  0  0  0  0  0
   -8.7402    5.7326   -7.8348 O   0  0  0  0  0  0  0  0  0  0  0  0
   -8.7363    3.6671   -8.8144 O   0  0  0  0  0  0  0  0  0  0  0  0
   -7.0294    5.7464  -19.3837 H   0  0  0  0  0  0  0  0  0  0  0  0
   -6.9632    7.2159  -17.3562 H   0  0  0  0  0  0  0  0  0  0  0  0
   -8.2878    3.6103  -19.2834 H   0  0  0  0  0  0  0  0  0  0  0  0
   -7.7142    7.2106  -12.4621 H   0  0  0  0  0  0  0  0  0  0  0  0
   -8.5859    8.5692  -11.7774 H   0  0  0  0  0  0  0  0  0  0  0  0
  -10.5523    6.7644  -11.5366 H   0  0  0  0  0  0  0  0  0  0  0  0
  -10.2669    7.5798  -13.0605 H   0  0  0  0  0  0  0  0  0  0  0  0
   -7.1210    7.2483  -10.1154 H   0  0  0  0  0  0  0  0  0  0  0  0
   -8.7888    7.5289   -9.6326 H   0  0  0  0  0  0  0  0  0  0  0  0
   -9.3749    3.5177  -12.6450 H   0  0  0  0  0  0  0  0  0  0  0  0
  -10.2890    4.3740  -11.4235 H   0  0  0  0  0  0  0  0  0  0  0  0
   -7.8800    3.6086  -10.8286 H   0  0  0  0  0  0  0  0  0  0  0  0
   -7.3268    4.9441  -11.8318 H   0  0  0  0  0  0  0  0  0  0  0  0
  -10.3155    5.0805   -7.1593 H   0  0  0  0  0  0  0  0  0  0  0  0
  -11.2889    4.3865   -8.4757 H   0  0  0  0  0  0  0  0  0  0  0  0
  -11.4375    3.7763   -6.8133 H   0  0  0  0  0  0  0  0  0  0  0  0
   -9.4198    1.1019   -8.5815 H   0  0  0  0  0  0  0  0  0  0  0  0
  -10.7029    2.0175   -9.3526 H   0  0  0  0  0  0  0  0  0  0  0  0
  -10.9392    1.3917   -7.7057 H   0  0  0  0  0  0  0  0  0  0  0  0
   -8.0333    2.1183   -6.7444 H   0  0  0  0  0  0  0  0  0  0  0  0
   -8.3689    3.7615   -6.1574 H   0  0  0  0  0  0  0  0  0  0  0  0
   -9.4691    2.4163   -5.7801 H   0  0  0  0  0  0  0  0  0  0  0  0
   -9.9865    3.6586  -14.7579 H   0  0  0  0  0  0  0  0  0  0  0  0
  1  2  1  0  0  0  0
  1  3  2  0  0  0  0
  2  4  2  0  0  0  0
  3 17  1  0  0  0  0
  4  5  1  0  0  0  0
  4 18  1  0  0  0  0
  5 17  2  0  0  0  0
  5 19  1  0  0  0  0
  6 18  2  0  0  0  0
  6 19  1  0  0  0  0
  6 20  1  0  0  0  0
  7 21  1  0  0  0  0
  7 22  2  0  0  0  0
  7 23  1  0  0  0  0
  8  9  1  0  0  0  0
  8 10  1  0  0  0  0
  9 20  1  0  0  0  0
 10 21  1  0  0  0  0
 11 12  1  0  0  0  0
 11 20  1  0  0  0  0
 12 21  1  0  0  0  0
 13 16  1  0  0  0  0
 14 16  1  0  0  0  0
 15 16  1  0  0  0  0
 16 23  1  0  0  0  0
  1 24  1  0  0  0  0
  2 25  1  0  0  0  0
  3 26  1  0  0  0  0
  8 27  1  0  0  0  0
  8 28  1  0  0  0  0
  9 29  1  0  0  0  0
  9 30  1  0  0  0  0
 10 31  1  0  0  0  0
 10 32  1  0  0  0  0
 11 33  1  0  0  0  0
 11 34  1  0  0  0  0
 12 35  1  0  0  0  0
 12 36  1  0  0  0  0
 13 37  1  0  0  0  0
 13 38  1  0  0  0  0
 13 39  1  0  0  0  0
 14 40  1  0  0  0  0
 14 41  1  0  0  0  0
 14 42  1  0  0  0  0
 15 43  1  0  0  0  0
 15 44  1  0  0  0  0
 15 45  1  0  0  0  0
 19 46  1  0  0  0  0
M  END
> <id>
EN300-1582035

> <smiles>
CC(C)(C)OC(=O)N1CCCN(CC1)C2=NC=3C=CC=NC3N2

> <IUPAC Name>
tert-butyl 4-{3H-imidazo[4,5-b]pyridin-2-yl}-1,4-diazepane-1-carboxylate

> <CAS>
2172117-20-1

> <URL>
https://www.enaminestore.com/catalog/EN300-1582035

> <ROCS_ShapeQuery>
_x0404_0B

> <ROCS_TanimotoCombo>
0.434 

> <ROCS_ShapeTanimoto>
0.365 

> <ROCS_ColorTanimoto>
0.069 

> <ROCS_RefTversky>
0.322 

> <ROCS_RefColorTversky>
0.075 

> <ROCS_RefTverskyCombo>
0.397 

> <ROCS_FitTversky>
1.590 

> <ROCS_FitColorTversky>
0.440 

> <ROCS_FitTverskyCombo>
2.031 

> <ROCS_ColorScore>
-5.436

> <ROCS_Overlap>
2148.070

> <ROCS_Rank>
339                 

$$$$
untitled-dbase-27662_0
  -OEChem-08222312023D

 31 33  0     0  0  0  0  0  0999 V2000
   -7.3788    5.9792  -15.2364 C   0  0  0  0  0  0  0  0  0  0  0  0
   -9.5354    4.8919  -15.2993 C   0  0  0  0  0  0  0  0  0  0  0  0
   -7.2675    5.8386  -16.6196 C   0  0  0  0  0  0  0  0  0  0  0  0
   -9.4242    4.7514  -16.6826 C   0  0  0  0  0  0  0  0  0  0  0  0
   -9.0290    3.2124  -10.4597 C   0  0  0  0  0  0  0  0  0  0  0  0
   -9.1480    4.3277   -8.3177 C   0  0  0  0  0  0  0  0  0  0  0  0
   -8.5127    5.5058  -14.5762 C   0  0  0  0  0  0  0  0  0  0  0  0
   -8.8883    5.6200  -10.3387 C   0  0  0  0  0  0  0  0  0  0  0  0
   -8.8950    4.4486  -11.0925 C   0  0  0  0  0  0  0  0  0  0  0  0
   -8.2902    5.2247  -17.3428 C   0  0  0  0  0  0  0  0  0  0  0  0
   -9.1553    3.1535   -9.0716 C   0  0  0  0  0  0  0  0  0  0  0  0
   -9.0147    5.5653   -8.9484 C   0  0  0  0  0  0  0  0  0  0  0  0
   -8.6302    5.6543  -13.1147 C   0  0  0  0  0  0  0  0  0  0  0  0
   -8.7480    6.9104  -11.0309 C   0  0  0  0  0  0  0  0  0  0  0  0
   -8.6173    6.8546  -12.5069 C   0  0  0  0  0  0  0  0  0  0  0  0
   -8.7411    7.9723  -10.4228 O   0  0  0  0  0  0  0  0  0  0  0  0
   -8.7751    4.4424  -12.4581 O   0  0  0  0  0  0  0  0  0  0  0  0
   -8.1817    5.0876  -18.6926 O   0  0  0  0  0  0  0  0  0  0  0  0
   -9.2860    1.9485   -8.4517 O   0  0  0  0  0  0  0  0  0  0  0  0
   -9.0139    6.6805   -8.1663 O   0  0  0  0  0  0  0  0  0  0  0  0
   -8.5043    8.0444  -13.1931 O   0  0  0  0  0  0  0  0  0  0  0  0
   -6.5732    6.4599  -14.6865 H   0  0  0  0  0  0  0  0  0  0  0  0
  -10.4254    4.5179  -14.7988 H   0  0  0  0  0  0  0  0  0  0  0  0
   -6.3818    6.2093  -17.1284 H   0  0  0  0  0  0  0  0  0  0  0  0
  -10.2241    4.2723  -17.2405 H   0  0  0  0  0  0  0  0  0  0  0  0
   -9.0351    2.2963  -11.0449 H   0  0  0  0  0  0  0  0  0  0  0  0
   -9.2469    4.2762   -7.2360 H   0  0  0  0  0  0  0  0  0  0  0  0
   -7.3422    5.4633  -19.0024 H   0  0  0  0  0  0  0  0  0  0  0  0
   -9.3630    2.0709   -7.4921 H   0  0  0  0  0  0  0  0  0  0  0  0
   -8.9156    7.4746   -8.7148 H   0  0  0  0  0  0  0  0  0  0  0  0
   -8.5154    8.7824  -12.5744 H   0  0  0  0  0  0  0  0  0  0  0  0
  1  3  1  0  0  0  0
  1  7  2  0  0  0  0
  2  4  2  0  0  0  0
  2  7  1  0  0  0  0
  3 10  2  0  0  0  0
  4 10  1  0  0  0  0
  5  9  2  0  0  0  0
  5 11  1  0  0  0  0
  6 11  2  0  0  0  0
  6 12  1  0  0  0  0
  7 13  1  0  0  0  0
  8  9  1  0  0  0  0
  8 12  2  0  0  0  0
  8 14  1  0  0  0  0
  9 17  1  0  0  0  0
 10 18  1  0  0  0  0
 11 19  1  0  0  0  0
 12 20  1  0  0  0  0
 13 15  2  0  0  0  0
 13 17  1  0  0  0  0
 14 15  1  0  0  0  0
 14 16  2  0  0  0  0
 15 21  1  0  0  0  0
  1 22  1  0  0  0  0
  2 23  1  0  0  0  0
  3 24  1  0  0  0  0
  4 25  1  0  0  0  0
  5 26  1  0  0  0  0
  6 27  1  0  0  0  0
 18 28  1  0  0  0  0
 19 29  1  0  0  0  0
 20 30  1  0  0  0  0
 21 31  1  0  0  0  0
M  END
> <id>
EN300-205764

> <smiles>
OC=1C=CC(=CC1)C=2OC=3C=C(O)C=C(O)C3C(=O)C2O

> <MDLNUMBER>
MFCD00016938

> <IUPAC Name>
3,5,7-trihydroxy-2-(4-hydroxyphenyl)-4H-chromen-4-one

> <CAS>
520-18-3

> <Purity>
95

> <URL>
https://www.enaminestore.com/catalog/EN300-205764

> <MP>
276-280

> <ROCS_ShapeQuery>
_x0404_0B

> <ROCS_TanimotoCombo>
0.434 

> <ROCS_ShapeTanimoto>
0.358 

> <ROCS_ColorTanimoto>
0.076 

> <ROCS_RefTversky>
0.314 

> <ROCS_RefColorTversky>
0.087 

> <ROCS_RefTverskyCombo>
0.401 

> <ROCS_FitTversky>
1.636 

> <ROCS_FitColorTversky>
0.390 

> <ROCS_FitTverskyCombo>
2.026 

> <ROCS_ColorScore>
-6.287

> <ROCS_Overlap>
2095.194

> <ROCS_Rank>
340                 

$$$$
untitled-dbase-27664_0
  -OEChem-08222312023D

 31 33  0     0  0  0  0  0  0999 V2000
   -7.3788    5.9792  -15.2364 C   0  0  0  0  0  0  0  0  0  0  0  0
   -9.5354    4.8919  -15.2993 C   0  0  0  0  0  0  0  0  0  0  0  0
   -7.2675    5.8386  -16.6196 C   0  0  0  0  0  0  0  0  0  0  0  0
   -9.4242    4.7514  -16.6826 C   0  0  0  0  0  0  0  0  0  0  0  0
   -9.0290    3.2124  -10.4597 C   0  0  0  0  0  0  0  0  0  0  0  0
   -9.1480    4.3277   -8.3177 C   0  0  0  0  0  0  0  0  0  0  0  0
   -8.5127    5.5058  -14.5762 C   0  0  0  0  0  0  0  0  0  0  0  0
   -8.8883    5.6200  -10.3387 C   0  0  0  0  0  0  0  0  0  0  0  0
   -8.8950    4.4486  -11.0925 C   0  0  0  0  0  0  0  0  0  0  0  0
   -8.2902    5.2247  -17.3428 C   0  0  0  0  0  0  0  0  0  0  0  0
   -9.1553    3.1535   -9.0716 C   0  0  0  0  0  0  0  0  0  0  0  0
   -9.0147    5.5653   -8.9484 C   0  0  0  0  0  0  0  0  0  0  0  0
   -8.6302    5.6543  -13.1147 C   0  0  0  0  0  0  0  0  0  0  0  0
   -8.7480    6.9104  -11.0309 C   0  0  0  0  0  0  0  0  0  0  0  0
   -8.6173    6.8546  -12.5069 C   0  0  0  0  0  0  0  0  0  0  0  0
   -8.7411    7.9723  -10.4228 O   0  0  0  0  0  0  0  0  0  0  0  0
   -8.7751    4.4424  -12.4581 O   0  0  0  0  0  0  0  0  0  0  0  0
   -8.1817    5.0876  -18.6926 O   0  0  0  0  0  0  0  0  0  0  0  0
   -9.2860    1.9485   -8.4517 O   0  0  0  0  0  0  0  0  0  0  0  0
   -9.0139    6.6805   -8.1663 O   0  0  0  0  0  0  0  0  0  0  0  0
   -8.5043    8.0444  -13.1931 O   0  0  0  0  0  0  0  0  0  0  0  0
   -6.5732    6.4599  -14.6865 H   0  0  0  0  0  0  0  0  0  0  0  0
  -10.4254    4.5179  -14.7988 H   0  0  0  0  0  0  0  0  0  0  0  0
   -6.3818    6.2093  -17.1284 H   0  0  0  0  0  0  0  0  0  0  0  0
  -10.2241    4.2723  -17.2405 H   0  0  0  0  0  0  0  0  0  0  0  0
   -9.0351    2.2963  -11.0449 H   0  0  0  0  0  0  0  0  0  0  0  0
   -9.2469    4.2762   -7.2360 H   0  0  0  0  0  0  0  0  0  0  0  0
   -7.3422    5.4633  -19.0024 H   0  0  0  0  0  0  0  0  0  0  0  0
   -9.3630    2.0709   -7.4921 H   0  0  0  0  0  0  0  0  0  0  0  0
   -8.9156    7.4746   -8.7148 H   0  0  0  0  0  0  0  0  0  0  0  0
   -8.5154    8.7824  -12.5744 H   0  0  0  0  0  0  0  0  0  0  0  0
  1  3  1  0  0  0  0
  1  7  2  0  0  0  0
  2  4  2  0  0  0  0
  2  7  1  0  0  0  0
  3 10  2  0  0  0  0
  4 10  1  0  0  0  0
  5  9  2  0  0  0  0
  5 11  1  0  0  0  0
  6 11  2  0  0  0  0
  6 12  1  0  0  0  0
  7 13  1  0  0  0  0
  8  9  1  0  0  0  0
  8 12  2  0  0  0  0
  8 14  1  0  0  0  0
  9 17  1  0  0  0  0
 10 18  1  0  0  0  0
 11 19  1  0  0  0  0
 12 20  1  0  0  0  0
 13 15  2  0  0  0  0
 13 17  1  0  0  0  0
 14 15  1  0  0  0  0
 14 16  2  0  0  0  0
 15 21  1  0  0  0  0
  1 22  1  0  0  0  0
  2 23  1  0  0  0  0
  3 24  1  0  0  0  0
  4 25  1  0  0  0  0
  5 26  1  0  0  0  0
  6 27  1  0  0  0  0
 18 28  1  0  0  0  0
 19 29  1  0  0  0  0
 20 30  1  0  0  0  0
 21 31  1  0  0  0  0
M  END
> <id>
EN300-206857

> <smiles>
O.OC=1C=CC(=CC1)C=2OC=3C=C(O)C=C(O)C3C(=O)C2O

> <MDLNUMBER>
MFCD18207731

> <IUPAC Name>
3,5,7-trihydroxy-2-(4-hydroxyphenyl)-4H-chromen-4-one hydrate

> <CAS>
1897498-12-2

> <URL>
https://www.enaminestore.com/catalog/EN300-206857

> <Saltdate>
O

> <ROCS_ShapeQuery>
_x0404_0B

> <ROCS_TanimotoCombo>
0.434 

> <ROCS_ShapeTanimoto>
0.358 

> <ROCS_ColorTanimoto>
0.076 

> <ROCS_RefTversky>
0.314 

> <ROCS_RefColorTversky>
0.087 

> <ROCS_RefTverskyCombo>
0.401 

> <ROCS_FitTversky>
1.636 

> <ROCS_FitColorTversky>
0.390 

> <ROCS_FitTverskyCombo>
2.026 

> <ROCS_ColorScore>
-6.287

> <ROCS_Overlap>
2095.194

> <ROCS_Rank>
341                 

$$$$
untitled-dbase-92201_803
  -OEChem-08222312023D

 46 48  0     1  0  0  0  0  0999 V2000
   -9.8000    4.1767  -18.1989 C   0  0  0  0  0  0  0  0  0  0  0  0
   -9.9577    4.7954  -16.9637 C   0  0  0  0  0  0  0  0  0  0  0  0
   -8.5132    4.0290  -18.6907 C   0  0  0  0  0  0  0  0  0  0  0  0
   -8.8395    5.2412  -16.2679 C   0  0  0  0  0  0  0  0  0  0  0  0
   -7.5956    5.0456  -16.8461 C   0  0  0  0  0  0  0  0  0  0  0  0
   -9.1771    5.2457   -9.0987 C   0  0  0  0  0  0  0  0  0  0  0  0
  -10.4869    6.0417  -14.4409 C   0  0  0  0  0  0  0  0  0  0  0  0
  -10.3678    6.3868  -12.9598 C   0  0  0  0  0  0  0  0  0  0  0  0
   -8.3604    5.1653  -13.7466 C   0  0  0  0  0  0  0  0  0  0  0  0
   -8.3426    6.2290  -11.3374 C   0  0  0  0  0  0  0  0  0  0  0  0
   -9.4663    4.4162  -11.5102 C   0  0  0  0  0  0  0  0  0  0  0  0
   -9.0322    5.9137  -14.9212 C   0  0  1  0  0  0  0  0  0  0  0  0
   -9.1517    5.5785  -12.4924 C   0  0  0  0  0  0  0  0  0  0  0  0
   -7.8529    3.7291   -7.5771 C   0  0  0  0  0  0  0  0  0  0  0  0
  -10.0800    3.1500   -6.5701 C   0  0  0  0  0  0  0  0  0  0  0  0
   -9.2306    1.8619   -8.5519 C   0  0  0  0  0  0  0  0  0  0  0  0
   -9.2669    3.2241   -7.8607 C   0  0  0  0  0  0  0  0  0  0  0  0
   -7.4029    4.4490  -18.0438 N   0  0  0  0  0  0  0  0  0  0  0  0
   -9.0230    5.3032  -10.4553 N   0  0  0  0  0  0  0  0  0  0  0  0
   -8.7082    6.0666   -8.3152 O   0  0  0  0  0  0  0  0  0  0  0  0
   -8.4598    7.2196  -15.0490 O   0  0  0  0  0  0  0  0  0  0  0  0
   -9.9188    4.1583   -8.7281 O   0  0  0  0  0  0  0  0  0  0  0  0
   -6.0189    5.6310  -15.9490 Br  0  0  0  0  0  0  0  0  0  0  0  0
  -10.6573    3.8218  -18.7592 H   0  0  0  0  0  0  0  0  0  0  0  0
  -10.9554    4.9252  -16.5531 H   0  0  0  0  0  0  0  0  0  0  0  0
   -8.3364    3.5536  -19.6498 H   0  0  0  0  0  0  0  0  0  0  0  0
  -11.0224    5.0902  -14.5546 H   0  0  0  0  0  0  0  0  0  0  0  0
  -11.0431    6.8166  -14.9790 H   0  0  0  0  0  0  0  0  0  0  0  0
  -10.1868    7.4626  -12.8495 H   0  0  0  0  0  0  0  0  0  0  0  0
  -11.2857    6.1469  -12.4138 H   0  0  0  0  0  0  0  0  0  0  0  0
   -8.4355    4.0802  -13.8924 H   0  0  0  0  0  0  0  0  0  0  0  0
   -7.2989    5.4236  -13.6616 H   0  0  0  0  0  0  0  0  0  0  0  0
   -7.2608    6.0650  -11.3523 H   0  0  0  0  0  0  0  0  0  0  0  0
   -8.5572    7.2807  -11.1313 H   0  0  0  0  0  0  0  0  0  0  0  0
  -10.5151    4.1190  -11.4327 H   0  0  0  0  0  0  0  0  0  0  0  0
   -8.8324    3.5276  -11.5908 H   0  0  0  0  0  0  0  0  0  0  0  0
   -7.2660    3.7837   -8.5010 H   0  0  0  0  0  0  0  0  0  0  0  0
   -7.8641    4.7207   -7.1131 H   0  0  0  0  0  0  0  0  0  0  0  0
   -7.3183    3.0416   -6.9116 H   0  0  0  0  0  0  0  0  0  0  0  0
  -11.0952    2.7882   -6.7688 H   0  0  0  0  0  0  0  0  0  0  0  0
  -10.1889    4.1433   -6.1198 H   0  0  0  0  0  0  0  0  0  0  0  0
   -9.6128    2.4858   -5.8358 H   0  0  0  0  0  0  0  0  0  0  0  0
  -10.2447    1.4995   -8.7554 H   0  0  0  0  0  0  0  0  0  0  0  0
   -8.6824    1.9045   -9.4986 H   0  0  0  0  0  0  0  0  0  0  0  0
   -8.7572    1.1112   -7.9088 H   0  0  0  0  0  0  0  0  0  0  0  0
   -8.5764    7.6620  -14.1925 H   0  0  0  0  0  0  0  0  0  0  0  0
  1  2  1  0  0  0  0
  1  3  2  0  0  0  0
  2  4  2  0  0  0  0
  3 18  1  0  0  0  0
  4  5  1  0  0  0  0
  4 12  1  0  0  0  0
  5 18  2  0  0  0  0
  5 23  1  0  0  0  0
  6 19  1  0  0  0  0
  6 20  2  0  0  0  0
  6 22  1  0  0  0  0
  7  8  1  0  0  0  0
  7 12  1  0  0  0  0
  8 13  1  0  0  0  0
  9 12  1  0  0  0  0
  9 13  1  0  0  0  0
 10 13  1  0  0  0  0
 10 19  1  0  0  0  0
 11 13  1  0  0  0  0
 11 19  1  0  0  0  0
 12 21  1  0  0  0  0
 14 17  1  0  0  0  0
 15 17  1  0  0  0  0
 16 17  1  0  0  0  0
 17 22  1  0  0  0  0
  1 24  1  0  0  0  0
  2 25  1  0  0  0  0
  3 26  1  0  0  0  0
  7 27  1  0  0  0  0
  7 28  1  0  0  0  0
  8 29  1  0  0  0  0
  8 30  1  0  0  0  0
  9 31  1  0  0  0  0
  9 32  1  0  0  0  0
 10 33  1  0  0  0  0
 10 34  1  0  0  0  0
 11 35  1  0  0  0  0
 11 36  1  0  0  0  0
 14 37  1  0  0  0  0
 14 38  1  0  0  0  0
 14 39  1  0  0  0  0
 15 40  1  0  0  0  0
 15 41  1  0  0  0  0
 15 42  1  0  0  0  0
 16 43  1  0  0  0  0
 16 44  1  0  0  0  0
 16 45  1  0  0  0  0
 21 46  1  0  0  0  0
M  END
> <id>
EN300-7429039

> <smiles>
CC(C)(C)OC(=O)N1CC2(C1)CCC(O)(C2)C=3C=CC=NC3Br

> <IUPAC Name>
tert-butyl 6-(2-bromopyridin-3-yl)-6-hydroxy-2-azaspiro[3.4]octane-2-carboxylate

> <CAS>
2309444-76-4

> <URL>
https://www.enaminestore.com/catalog/EN300-7429039

> <ROCS_ShapeQuery>
_x0404_0B

> <ROCS_TanimotoCombo>
0.434 

> <ROCS_ShapeTanimoto>
0.369 

> <ROCS_ColorTanimoto>
0.065 

> <ROCS_RefTversky>
0.323 

> <ROCS_RefColorTversky>
0.071 

> <ROCS_RefTverskyCombo>
0.394 

> <ROCS_FitTversky>
1.634 

> <ROCS_FitColorTversky>
0.416 

> <ROCS_FitTverskyCombo>
2.050 

> <ROCS_ColorScore>
-5.128

> <ROCS_Overlap>
2156.975

> <ROCS_Rank>
342                 

$$$$
untitled-dbase-93189_5
  -OEChem-08222312023D

 51 53  0     1  0  0  0  0  0999 V2000
   -8.8810    4.7365  -19.5305 C   0  0  0  0  0  0  0  0  0  0  0  0
   -9.0400    2.9359   -6.4642 C   0  0  0  0  0  0  0  0  0  0  0  0
  -10.0021    4.3844  -18.7791 C   0  0  0  0  0  0  0  0  0  0  0  0
   -7.6585    4.9595  -18.8968 C   0  0  0  0  0  0  0  0  0  0  0  0
   -9.0489    1.7277   -7.1521 C   0  0  0  0  0  0  0  0  0  0  0  0
   -9.0513    4.1430   -7.1673 C   0  0  0  0  0  0  0  0  0  0  0  0
   -9.9009    4.2553  -17.3939 C   0  0  0  0  0  0  0  0  0  0  0  0
   -7.5573    4.8304  -17.5116 C   0  0  0  0  0  0  0  0  0  0  0  0
   -9.0628    1.7251   -8.5442 C   0  0  0  0  0  0  0  0  0  0  0  0
   -9.0683    4.1628   -8.5730 C   0  0  0  0  0  0  0  0  0  0  0  0
   -8.6784    4.4783  -16.7601 C   0  0  0  0  0  0  0  0  0  0  0  0
   -9.0544    2.9339   -9.2553 C   0  0  0  0  0  0  0  0  0  0  0  0
   -7.1184    3.4419  -13.3105 C   0  0  0  0  0  0  0  0  0  0  0  0
   -7.9719    2.6306  -12.6689 C   0  0  0  0  0  0  0  0  0  0  0  0
   -9.0661    5.5127   -9.2247 C   0  0  0  0  0  0  0  0  0  0  0  0
   -8.8623    5.6797  -14.5690 C   0  0  0  0  0  0  0  0  0  0  0  0
   -7.1982    3.7938  -14.7730 C   0  0  0  0  0  0  0  0  0  0  0  0
   -7.9124    2.3523  -11.1990 C   0  0  0  0  0  0  0  0  0  0  0  0
  -10.1199    6.6723  -12.6453 C   0  0  0  0  0  0  0  0  0  0  0  0
   -8.5672    4.3378  -15.2479 C   0  0  2  0  0  0  0  0  0  0  0  0
   -9.2843    6.7987  -11.3630 C   0  0  2  0  0  0  0  0  0  0  0  0
   -7.8380    7.2018  -11.6519 C   0  0  0  0  0  0  0  0  0  0  0  0
   -9.3234    5.5608  -10.5851 N   0  0  0  0  0  0  0  0  0  0  0  0
   -9.7182    5.5548  -13.4841 N   0  0  0  0  0  0  0  0  0  0  0  0
   -8.8400    6.5100   -8.5413 O   0  0  0  0  0  0  0  0  0  0  0  0
   -8.3622    6.7362  -14.9512 O   0  0  0  0  0  0  0  0  0  0  0  0
   -9.1102    2.8906  -10.6238 O   0  0  0  0  0  0  0  0  0  0  0  0
   -8.9597    4.8357  -20.6092 H   0  0  0  0  0  0  0  0  0  0  0  0
   -9.0197    2.9441   -5.3777 H   0  0  0  0  0  0  0  0  0  0  0  0
  -10.9538    4.2097  -19.2725 H   0  0  0  0  0  0  0  0  0  0  0  0
   -6.7852    5.2325  -19.4816 H   0  0  0  0  0  0  0  0  0  0  0  0
   -9.0333    0.7911   -6.6063 H   0  0  0  0  0  0  0  0  0  0  0  0
   -9.0577    5.0776   -6.6005 H   0  0  0  0  0  0  0  0  0  0  0  0
  -10.7798    3.9808  -16.8165 H   0  0  0  0  0  0  0  0  0  0  0  0
   -6.6008    5.0062  -17.0264 H   0  0  0  0  0  0  0  0  0  0  0  0
   -9.0598    0.7691   -9.0623 H   0  0  0  0  0  0  0  0  0  0  0  0
   -6.2914    3.8881  -12.7515 H   0  0  0  0  0  0  0  0  0  0  0  0
   -8.7483    2.1171  -13.2358 H   0  0  0  0  0  0  0  0  0  0  0  0
   -6.3965    4.5145  -15.0406 H   0  0  0  0  0  0  0  0  0  0  0  0
   -6.9515    2.8719  -15.3393 H   0  0  0  0  0  0  0  0  0  0  0  0
   -7.8302    1.2741  -11.0135 H   0  0  0  0  0  0  0  0  0  0  0  0
   -7.0448    2.8630  -10.7675 H   0  0  0  0  0  0  0  0  0  0  0  0
  -11.1684    6.5067  -12.3868 H   0  0  0  0  0  0  0  0  0  0  0  0
  -10.0595    7.5954  -13.2257 H   0  0  0  0  0  0  0  0  0  0  0  0
   -9.3782    3.6231  -14.9562 H   0  0  0  0  0  0  0  0  0  0  0  0
   -9.7339    7.5893  -10.7508 H   0  0  0  0  0  0  0  0  0  0  0  0
   -7.3567    6.4379  -12.2602 H   0  0  0  0  0  0  0  0  0  0  0  0
   -7.2915    7.3098  -10.7165 H   0  0  0  0  0  0  0  0  0  0  0  0
   -7.8193    8.1492  -12.1878 H   0  0  0  0  0  0  0  0  0  0  0  0
   -9.5500    4.6960  -11.0665 H   0  0  0  0  0  0  0  0  0  0  0  0
  -10.1194    4.6443  -13.2716 H   0  0  0  0  0  0  0  0  0  0  0  0
  1  3  2  0  0  0  0
  1  4  1  0  0  0  0
  2  5  2  0  0  0  0
  2  6  1  0  0  0  0
  3  7  1  0  0  0  0
  4  8  2  0  0  0  0
  5  9  1  0  0  0  0
  6 10  2  0  0  0  0
  7 11  2  0  0  0  0
  8 11  1  0  0  0  0
  9 12  2  0  0  0  0
 10 12  1  0  0  0  0
 10 15  1  0  0  0  0
 11 20  1  0  0  0  0
 12 27  1  0  0  0  0
 13 14  2  0  0  0  0
 13 17  1  0  0  0  0
 14 18  1  0  0  0  0
 15 23  1  0  0  0  0
 15 25  2  0  0  0  0
 16 20  1  0  0  0  0
 16 24  1  0  0  0  0
 16 26  2  0  0  0  0
 17 20  1  0  0  0  0
 18 27  1  0  0  0  0
 19 21  1  0  0  0  0
 19 24  1  0  0  0  0
 21 22  1  1  0  0  0
 21 23  1  0  0  0  0
  1 28  1  0  0  0  0
  2 29  1  0  0  0  0
  3 30  1  0  0  0  0
  4 31  1  0  0  0  0
  5 32  1  0  0  0  0
  6 33  1  0  0  0  0
  7 34  1  0  0  0  0
  8 35  1  0  0  0  0
  9 36  1  0  0  0  0
 13 37  1  0  0  0  0
 14 38  1  0  0  0  0
 17 39  1  0  0  0  0
 17 40  1  0  0  0  0
 18 41  1  0  0  0  0
 18 42  1  0  0  0  0
 19 43  1  0  0  0  0
 19 44  1  0  0  0  0
 20 45  1  0  0  0  0
 21 46  1  0  0  0  0
 22 47  1  0  0  0  0
 22 48  1  0  0  0  0
 22 49  1  0  0  0  0
 23 50  1  0  0  0  0
 24 51  1  0  0  0  0
M  END
> <id>
EN300-6491619

> <smiles>
C[C@H]1CNC(=O)C(C/C=C/COC=2C=CC=CC2C(=O)N1)C=3C=CC=CC3

> <MDLNUMBER>
MFCD31720021

> <IUPAC Name>
(3E,10S)-10-methyl-6-phenyl-5,6,7,8,9,10,11,12-octahydro-2H-1,8,11-benzoxadiazacyclotetradecine-7,12-dione

> <CAS>
2253620-97-0

> <URL>
https://www.enaminestore.com/catalog/EN300-6491619

> <ROCS_ShapeQuery>
_x0404_0B

> <ROCS_TanimotoCombo>
0.434 

> <ROCS_ShapeTanimoto>
0.375 

> <ROCS_ColorTanimoto>
0.059 

> <ROCS_RefTversky>
0.334 

> <ROCS_RefColorTversky>
0.063 

> <ROCS_RefTverskyCombo>
0.397 

> <ROCS_FitTversky>
1.498 

> <ROCS_FitColorTversky>
0.438 

> <ROCS_FitTverskyCombo>
1.937 

> <ROCS_ColorScore>
-4.571

> <ROCS_Overlap>
2230.635

> <ROCS_Rank>
343                 

$$$$
untitled-dbase-88675_314
  -OEChem-08222312023D

 42 44  0     0  0  0  0  0  0999 V2000
  -10.0608    5.1469  -16.9692 C   0  0  0  0  0  0  0  0  0  0  0  0
   -9.9083    4.7596  -18.3005 C   0  0  0  0  0  0  0  0  0  0  0  0
   -7.6626    5.0992  -16.6805 C   0  0  0  0  0  0  0  0  0  0  0  0
   -8.9380    5.3168  -16.1592 C   0  0  0  0  0  0  0  0  0  0  0  0
   -8.6329    4.5420  -18.8218 C   0  0  0  0  0  0  0  0  0  0  0  0
   -7.5101    4.7119  -18.0118 C   0  0  0  0  0  0  0  0  0  0  0  0
   -9.0994    5.7229  -14.7628 C   0  0  0  0  0  0  0  0  0  0  0  0
   -8.7121    5.0598  -13.6665 C   0  0  0  0  0  0  0  0  0  0  0  0
   -9.7192    6.9956  -14.3039 C   0  0  0  0  0  0  0  0  0  0  0  0
   -8.4530    4.8888   -9.2045 C   0  0  0  0  0  0  0  0  0  0  0  0
   -7.8998    6.0421  -11.4436 C   0  0  0  0  0  0  0  0  0  0  0  0
   -9.8244    5.0717  -11.3612 C   0  0  0  0  0  0  0  0  0  0  0  0
   -9.0433    5.8267  -12.4556 C   0  0  0  0  0  0  0  0  0  0  0  0
   -8.1621    2.8880   -7.1887 C   0  0  0  0  0  0  0  0  0  0  0  0
  -10.5184    2.2322   -7.7603 C   0  0  0  0  0  0  0  0  0  0  0  0
   -8.7142    2.0547   -9.4985 C   0  0  0  0  0  0  0  0  0  0  0  0
   -9.2209    2.8394   -8.2893 C   0  0  0  0  0  0  0  0  0  0  0  0
   -8.6863    5.2849  -10.4925 N   0  0  0  0  0  0  0  0  0  0  0  0
  -10.2028    7.8581  -15.0166 O   0  0  0  0  0  0  0  0  0  0  0  0
   -7.4260    5.1397   -8.5800 O   0  0  0  0  0  0  0  0  0  0  0  0
   -9.6720    7.0359  -12.9370 O   0  0  0  0  0  0  0  0  0  0  0  0
   -8.0720    3.8549  -13.6199 O   0  0  0  0  0  0  0  0  0  0  0  0
   -9.5092    4.1794   -8.7035 O   0  0  0  0  0  0  0  0  0  0  0  0
   -8.5094    4.0624  -20.4780 Cl  0  0  0  0  0  0  0  0  0  0  0  0
   -5.9044    4.4564  -18.5999 Cl  0  0  0  0  0  0  0  0  0  0  0  0
  -11.0617    5.3127  -16.5774 H   0  0  0  0  0  0  0  0  0  0  0  0
  -10.7944    4.6319  -18.9173 H   0  0  0  0  0  0  0  0  0  0  0  0
   -6.7879    5.2331  -16.0469 H   0  0  0  0  0  0  0  0  0  0  0  0
   -6.9371    5.5728  -11.6698 H   0  0  0  0  0  0  0  0  0  0  0  0
   -7.7375    7.0801  -11.1359 H   0  0  0  0  0  0  0  0  0  0  0  0
  -10.7336    5.5705  -11.0101 H   0  0  0  0  0  0  0  0  0  0  0  0
  -10.0336    4.0117  -11.5381 H   0  0  0  0  0  0  0  0  0  0  0  0
   -7.2292    3.3232   -7.5644 H   0  0  0  0  0  0  0  0  0  0  0  0
   -8.4996    3.4773   -6.3299 H   0  0  0  0  0  0  0  0  0  0  0  0
   -7.9140    1.8790   -6.8400 H   0  0  0  0  0  0  0  0  0  0  0  0
  -11.2810    2.1954   -8.5466 H   0  0  0  0  0  0  0  0  0  0  0  0
  -10.9361    2.8456   -6.9538 H   0  0  0  0  0  0  0  0  0  0  0  0
  -10.3638    1.2174   -7.3795 H   0  0  0  0  0  0  0  0  0  0  0  0
   -9.4736    2.0197  -10.2881 H   0  0  0  0  0  0  0  0  0  0  0  0
   -7.8036    2.4980   -9.9142 H   0  0  0  0  0  0  0  0  0  0  0  0
   -8.5024    1.0142   -9.2269 H   0  0  0  0  0  0  0  0  0  0  0  0
   -7.9032    3.5930  -12.7037 H   0  0  0  0  0  0  0  0  0  0  0  0
  1  2  1  0  0  0  0
  1  4  2  0  0  0  0
  2  5  2  0  0  0  0
  3  4  1  0  0  0  0
  3  6  2  0  0  0  0
  4  7  1  0  0  0  0
  5  6  1  0  0  0  0
  5 24  1  0  0  0  0
  6 25  1  0  0  0  0
  7  8  2  0  0  0  0
  7  9  1  0  0  0  0
  8 13  1  0  0  0  0
  8 22  1  0  0  0  0
  9 19  2  0  0  0  0
  9 21  1  0  0  0  0
 10 18  1  0  0  0  0
 10 20  2  0  0  0  0
 10 23  1  0  0  0  0
 11 13  1  0  0  0  0
 11 18  1  0  0  0  0
 12 13  1  0  0  0  0
 12 18  1  0  0  0  0
 13 21  1  0  0  0  0
 14 17  1  0  0  0  0
 15 17  1  0  0  0  0
 16 17  1  0  0  0  0
 17 23  1  0  0  0  0
  1 26  1  0  0  0  0
  2 27  1  0  0  0  0
  3 28  1  0  0  0  0
 11 29  1  0  0  0  0
 11 30  1  0  0  0  0
 12 31  1  0  0  0  0
 12 32  1  0  0  0  0
 14 33  1  0  0  0  0
 14 34  1  0  0  0  0
 14 35  1  0  0  0  0
 15 36  1  0  0  0  0
 15 37  1  0  0  0  0
 15 38  1  0  0  0  0
 16 39  1  0  0  0  0
 16 40  1  0  0  0  0
 16 41  1  0  0  0  0
 22 42  1  0  0  0  0
M  END
> <id>
EN300-1644825

> <smiles>
CC(C)(C)OC(=O)N1CC2(C1)OC(=O)C(=C2O)C=3C=CC(Cl)=C(Cl)C3

> <IUPAC Name>
tert-butyl 7-(3,4-dichlorophenyl)-8-hydroxy-6-oxo-5-oxa-2-azaspiro[3.4]oct-7-ene-2-carboxylate

> <CAS>
2172566-06-0

> <URL>
https://www.enaminestore.com/catalog/EN300-1644825

> <ROCS_ShapeQuery>
_x0404_0B

> <ROCS_TanimotoCombo>
0.434 

> <ROCS_ShapeTanimoto>
0.388 

> <ROCS_ColorTanimoto>
0.046 

> <ROCS_RefTversky>
0.339 

> <ROCS_RefColorTversky>
0.051 

> <ROCS_RefTverskyCombo>
0.389 

> <ROCS_FitTversky>
1.595 

> <ROCS_FitColorTversky>
0.350 

> <ROCS_FitTverskyCombo>
1.945 

> <ROCS_ColorScore>
-3.652

> <ROCS_Overlap>
2262.752

> <ROCS_Rank>
344                 

$$$$
untitled-dbase-92170_1598
  -OEChem-08222312023D

 53 55  0     1  0  0  0  0  0999 V2000
   -7.8080    4.4500  -18.3574 C   0  0  0  0  0  0  0  0  0  0  0  0
   -9.1435    4.1235  -18.3373 C   0  0  0  0  0  0  0  0  0  0  0  0
   -8.8127    5.2742  -16.5775 C   0  0  0  0  0  0  0  0  0  0  0  0
   -8.7155    5.2081   -8.6199 C   0  0  0  0  0  0  0  0  0  0  0  0
  -10.3932    6.0379  -14.6553 C   0  0  0  0  0  0  0  0  0  0  0  0
  -10.3282    5.0858  -13.4655 C   0  0  0  0  0  0  0  0  0  0  0  0
   -8.7989    6.5630  -12.0277 C   0  0  0  0  0  0  0  0  0  0  0  0
   -8.4641    4.0744  -12.0481 C   0  0  0  0  0  0  0  0  0  0  0  0
   -8.0608    5.4037  -14.1779 C   0  0  0  0  0  0  0  0  0  0  0  0
   -9.5067    6.4420  -10.6772 C   0  0  0  0  0  0  0  0  0  0  0  0
   -9.2054    3.9809  -10.7175 C   0  0  0  0  0  0  0  0  0  0  0  0
   -8.9737    6.0297  -15.2629 C   0  0  1  0  0  0  0  0  0  0  0  0
   -8.9137    5.2836  -12.8922 C   0  0  0  0  0  0  0  0  0  0  0  0
  -10.5619    4.0202   -7.1816 C   0  0  0  0  0  0  0  0  0  0  0  0
   -9.1970    1.9129   -7.2541 C   0  0  0  0  0  0  0  0  0  0  0  0
   -8.4768    3.8195   -5.7864 C   0  0  0  0  0  0  0  0  0  0  0  0
   -6.3560    5.7632  -16.8028 C   0  0  0  0  0  0  0  0  0  0  0  0
   -9.1542    3.4316   -7.1000 C   0  0  0  0  0  0  0  0  0  0  0  0
   -9.7633    4.6398  -17.2270 N   0  0  0  0  0  0  0  0  0  0  0  0
   -7.6111    5.1875  -17.2240 N   0  0  0  0  0  0  0  0  0  0  0  0
   -9.0993    5.2285   -9.9650 N   0  0  0  0  0  0  0  0  0  0  0  0
   -8.6790    6.2005   -7.8946 O   0  0  0  0  0  0  0  0  0  0  0  0
   -8.6015    7.3960  -15.4765 O   0  0  0  0  0  0  0  0  0  0  0  0
   -8.3783    3.9538   -8.1847 O   0  0  0  0  0  0  0  0  0  0  0  0
  -10.0432    3.1060  -19.6392 Br  0  0  0  0  0  0  0  0  0  0  0  0
   -7.0080    4.2313  -19.0517 H   0  0  0  0  0  0  0  0  0  0  0  0
  -11.1378    5.6783  -15.3829 H   0  0  0  0  0  0  0  0  0  0  0  0
  -10.6997    7.0435  -14.3325 H   0  0  0  0  0  0  0  0  0  0  0  0
  -11.0935    5.3678  -12.7342 H   0  0  0  0  0  0  0  0  0  0  0  0
  -10.5336    4.0558  -13.7684 H   0  0  0  0  0  0  0  0  0  0  0  0
   -9.2322    7.4109  -12.5756 H   0  0  0  0  0  0  0  0  0  0  0  0
   -7.7437    6.8119  -11.8586 H   0  0  0  0  0  0  0  0  0  0  0  0
   -7.3851    4.1151  -11.8587 H   0  0  0  0  0  0  0  0  0  0  0  0
   -8.6453    3.1469  -12.6066 H   0  0  0  0  0  0  0  0  0  0  0  0
   -7.7119    4.4177  -14.5061 H   0  0  0  0  0  0  0  0  0  0  0  0
   -7.1730    6.0278  -14.0284 H   0  0  0  0  0  0  0  0  0  0  0  0
   -9.2650    7.2922  -10.0297 H   0  0  0  0  0  0  0  0  0  0  0  0
  -10.5906    6.4521  -10.8294 H   0  0  0  0  0  0  0  0  0  0  0  0
  -10.2507    3.7153  -10.9051 H   0  0  0  0  0  0  0  0  0  0  0  0
   -8.7845    3.1878  -10.0877 H   0  0  0  0  0  0  0  0  0  0  0  0
  -10.5355    5.1102   -7.0714 H   0  0  0  0  0  0  0  0  0  0  0  0
  -11.0456    3.7786   -8.1337 H   0  0  0  0  0  0  0  0  0  0  0  0
  -11.1915    3.6424   -6.3679 H   0  0  0  0  0  0  0  0  0  0  0  0
   -8.1890    1.4863   -7.1962 H   0  0  0  0  0  0  0  0  0  0  0  0
   -9.5953    1.6313   -8.2356 H   0  0  0  0  0  0  0  0  0  0  0  0
   -9.8161    1.4456   -6.4815 H   0  0  0  0  0  0  0  0  0  0  0  0
   -7.4670    3.3975   -5.7276 H   0  0  0  0  0  0  0  0  0  0  0  0
   -8.4041    4.9063   -5.6757 H   0  0  0  0  0  0  0  0  0  0  0  0
   -9.0300    3.4184   -4.9294 H   0  0  0  0  0  0  0  0  0  0  0  0
   -6.2844    6.7664  -17.2312 H   0  0  0  0  0  0  0  0  0  0  0  0
   -6.3255    5.8107  -15.7107 H   0  0  0  0  0  0  0  0  0  0  0  0
   -5.5335    5.1355  -17.1570 H   0  0  0  0  0  0  0  0  0  0  0  0
   -8.7126    7.8537  -14.6271 H   0  0  0  0  0  0  0  0  0  0  0  0
  1  2  2  0  0  0  0
  1 20  1  0  0  0  0
  2 19  1  0  0  0  0
  2 25  1  0  0  0  0
  3 12  1  0  0  0  0
  3 19  2  0  0  0  0
  3 20  1  0  0  0  0
  4 21  1  0  0  0  0
  4 22  2  0  0  0  0
  4 24  1  0  0  0  0
  5  6  1  0  0  0  0
  5 12  1  0  0  0  0
  6 13  1  0  0  0  0
  7 10  1  0  0  0  0
  7 13  1  0  0  0  0
  8 11  1  0  0  0  0
  8 13  1  0  0  0  0
  9 12  1  0  0  0  0
  9 13  1  0  0  0  0
 10 21  1  0  0  0  0
 11 21  1  0  0  0  0
 12 23  1  0  0  0  0
 14 18  1  0  0  0  0
 15 18  1  0  0  0  0
 16 18  1  0  0  0  0
 17 20  1  0  0  0  0
 18 24  1  0  0  0  0
  1 26  1  0  0  0  0
  5 27  1  0  0  0  0
  5 28  1  0  0  0  0
  6 29  1  0  0  0  0
  6 30  1  0  0  0  0
  7 31  1  0  0  0  0
  7 32  1  0  0  0  0
  8 33  1  0  0  0  0
  8 34  1  0  0  0  0
  9 35  1  0  0  0  0
  9 36  1  0  0  0  0
 10 37  1  0  0  0  0
 10 38  1  0  0  0  0
 11 39  1  0  0  0  0
 11 40  1  0  0  0  0
 14 41  1  0  0  0  0
 14 42  1  0  0  0  0
 14 43  1  0  0  0  0
 15 44  1  0  0  0  0
 15 45  1  0  0  0  0
 15 46  1  0  0  0  0
 16 47  1  0  0  0  0
 16 48  1  0  0  0  0
 16 49  1  0  0  0  0
 17 50  1  0  0  0  0
 17 51  1  0  0  0  0
 17 52  1  0  0  0  0
 23 53  1  0  0  0  0
M  END
> <id>
EN300-7428861

> <smiles>
CN1C=C(Br)N=C1C2(O)CCC3(C2)CCN(CC3)C(=O)OC(C)(C)C

> <IUPAC Name>
tert-butyl 2-(4-bromo-1-methyl-1H-imidazol-2-yl)-2-hydroxy-8-azaspiro[4.5]decane-8-carboxylate

> <CAS>
2309463-72-5

> <URL>
https://www.enaminestore.com/catalog/EN300-7428861

> <ROCS_ShapeQuery>
_x0404_0B

> <ROCS_TanimotoCombo>
0.434 

> <ROCS_ShapeTanimoto>
0.378 

> <ROCS_ColorTanimoto>
0.056 

> <ROCS_RefTversky>
0.332 

> <ROCS_RefColorTversky>
0.063 

> <ROCS_RefTverskyCombo>
0.395 

> <ROCS_FitTversky>
1.580 

> <ROCS_FitColorTversky>
0.341 

> <ROCS_FitTverskyCombo>
1.920 

> <ROCS_ColorScore>
-4.524

> <ROCS_Overlap>
2217.968

> <ROCS_Rank>
345                 

$$$$
untitled-dbase-92174_3092
  -OEChem-08222312023D

 50 52  0     0  0  0  0  0  0999 V2000
   -9.8237    4.3510  -18.4967 C   0  0  0  0  0  0  0  0  0  0  0  0
   -9.8362    4.5125  -17.1113 C   0  0  0  0  0  0  0  0  0  0  0  0
   -8.6624    4.6228  -19.2200 C   0  0  0  0  0  0  0  0  0  0  0  0
   -7.5263    5.2178  -17.1725 C   0  0  0  0  0  0  0  0  0  0  0  0
   -8.6876    4.9459  -16.4492 C   0  0  0  0  0  0  0  0  0  0  0  0
   -7.5137    5.0563  -18.5579 C   0  0  0  0  0  0  0  0  0  0  0  0
   -9.1576    5.2434   -8.9695 C   0  0  0  0  0  0  0  0  0  0  0  0
   -7.3730    5.6062  -14.3157 C   0  0  0  0  0  0  0  0  0  0  0  0
   -9.8565    6.0746  -14.5074 C   0  0  0  0  0  0  0  0  0  0  0  0
   -7.3996    5.6766  -12.7810 C   0  0  0  0  0  0  0  0  0  0  0  0
   -9.5379    6.9518  -13.2900 C   0  0  0  0  0  0  0  0  0  0  0  0
   -9.5962    5.0729  -11.5077 C   0  0  0  0  0  0  0  0  0  0  0  0
   -8.6443    6.8853  -10.8720 C   0  0  0  0  0  0  0  0  0  0  0  0
   -8.7021    5.1228  -14.9299 C   0  0  0  0  0  0  0  0  0  0  0  0
   -8.7584    6.1610  -12.2436 C   0  0  0  0  0  0  0  0  0  0  0  0
   -8.5109    3.3911   -6.8952 C   0  0  0  0  0  0  0  0  0  0  0  0
   -9.7905    1.7086   -8.2521 C   0  0  0  0  0  0  0  0  0  0  0  0
   -7.7273    2.7765   -9.2066 C   0  0  0  0  0  0  0  0  0  0  0  0
   -8.9419    2.9774   -8.3015 C   0  0  0  0  0  0  0  0  0  0  0  0
   -9.1293    5.6617  -10.2706 N   0  0  0  0  0  0  0  0  0  0  0  0
   -8.7043    5.8870   -8.0272 O   0  0  0  0  0  0  0  0  0  0  0  0
   -8.9228    3.8177  -14.3663 O   0  0  0  0  0  0  0  0  0  0  0  0
   -9.7548    4.0188   -8.8538 O   0  0  0  0  0  0  0  0  0  0  0  0
   -5.9406    5.4245  -19.5387 Br  0  0  0  0  0  0  0  0  0  0  0  0
  -10.7181    4.0136  -19.0122 H   0  0  0  0  0  0  0  0  0  0  0  0
  -10.7456    4.2982  -16.5560 H   0  0  0  0  0  0  0  0  0  0  0  0
   -8.6694    4.4919  -20.2991 H   0  0  0  0  0  0  0  0  0  0  0  0
   -6.6344    5.5554  -16.6494 H   0  0  0  0  0  0  0  0  0  0  0  0
   -7.1243    6.6007  -14.7069 H   0  0  0  0  0  0  0  0  0  0  0  0
   -6.5573    4.9345  -14.6101 H   0  0  0  0  0  0  0  0  0  0  0  0
  -10.7539    5.4806  -14.2744 H   0  0  0  0  0  0  0  0  0  0  0  0
  -10.1251    6.7242  -15.3556 H   0  0  0  0  0  0  0  0  0  0  0  0
   -7.1692    4.6829  -12.3640 H   0  0  0  0  0  0  0  0  0  0  0  0
   -6.5872    6.3389  -12.4398 H   0  0  0  0  0  0  0  0  0  0  0  0
   -8.9660    7.8303  -13.6245 H   0  0  0  0  0  0  0  0  0  0  0  0
  -10.4700    7.3427  -12.8561 H   0  0  0  0  0  0  0  0  0  0  0  0
  -10.6812    5.1447  -11.6173 H   0  0  0  0  0  0  0  0  0  0  0  0
   -9.2739    4.0396  -11.6518 H   0  0  0  0  0  0  0  0  0  0  0  0
   -7.6353    7.1606  -10.5538 H   0  0  0  0  0  0  0  0  0  0  0  0
   -9.3270    7.7253  -10.7111 H   0  0  0  0  0  0  0  0  0  0  0  0
   -7.9016    4.3014   -6.9263 H   0  0  0  0  0  0  0  0  0  0  0  0
   -9.3737    3.5722   -6.2458 H   0  0  0  0  0  0  0  0  0  0  0  0
   -7.8869    2.6171   -6.4339 H   0  0  0  0  0  0  0  0  0  0  0  0
  -10.1020    1.4081   -9.2591 H   0  0  0  0  0  0  0  0  0  0  0  0
  -10.7111    1.8768   -7.6816 H   0  0  0  0  0  0  0  0  0  0  0  0
   -9.2462    0.8761   -7.7947 H   0  0  0  0  0  0  0  0  0  0  0  0
   -8.0362    2.4797  -10.2155 H   0  0  0  0  0  0  0  0  0  0  0  0
   -7.1264    3.6885   -9.2835 H   0  0  0  0  0  0  0  0  0  0  0  0
   -7.0890    1.9696   -8.8288 H   0  0  0  0  0  0  0  0  0  0  0  0
   -8.1871    3.2586  -14.6626 H   0  0  0  0  0  0  0  0  0  0  0  0
  1  2  1  0  0  0  0
  1  3  2  0  0  0  0
  2  5  2  0  0  0  0
  3  6  1  0  0  0  0
  4  5  1  0  0  0  0
  4  6  2  0  0  0  0
  5 14  1  0  0  0  0
  6 24  1  0  0  0  0
  7 20  1  0  0  0  0
  7 21  2  0  0  0  0
  7 23  1  0  0  0  0
  8 10  1  0  0  0  0
  8 14  1  0  0  0  0
  9 11  1  0  0  0  0
  9 14  1  0  0  0  0
 10 15  1  0  0  0  0
 11 15  1  0  0  0  0
 12 15  1  0  0  0  0
 12 20  1  0  0  0  0
 13 15  1  0  0  0  0
 13 20  1  0  0  0  0
 14 22  1  0  0  0  0
 16 19  1  0  0  0  0
 17 19  1  0  0  0  0
 18 19  1  0  0  0  0
 19 23  1  0  0  0  0
  1 25  1  0  0  0  0
  2 26  1  0  0  0  0
  3 27  1  0  0  0  0
  4 28  1  0  0  0  0
  8 29  1  0  0  0  0
  8 30  1  0  0  0  0
  9 31  1  0  0  0  0
  9 32  1  0  0  0  0
 10 33  1  0  0  0  0
 10 34  1  0  0  0  0
 11 35  1  0  0  0  0
 11 36  1  0  0  0  0
 12 37  1  0  0  0  0
 12 38  1  0  0  0  0
 13 39  1  0  0  0  0
 13 40  1  0  0  0  0
 16 41  1  0  0  0  0
 16 42  1  0  0  0  0
 16 43  1  0  0  0  0
 17 44  1  0  0  0  0
 17 45  1  0  0  0  0
 17 46  1  0  0  0  0
 18 47  1  0  0  0  0
 18 48  1  0  0  0  0
 18 49  1  0  0  0  0
 22 50  1  0  0  0  0
M  END
> <id>
EN300-7428879

> <smiles>
CC(C)(C)OC(=O)N1CC2(C1)CCC(O)(CC2)C=3C=CC=C(Br)C3

> <IUPAC Name>
tert-butyl 7-(3-bromophenyl)-7-hydroxy-2-azaspiro[3.5]nonane-2-carboxylate

> <CAS>
2309456-28-6

> <URL>
https://www.enaminestore.com/catalog/EN300-7428879

> <ROCS_ShapeQuery>
_x0404_0B

> <ROCS_TanimotoCombo>
0.434 

> <ROCS_ShapeTanimoto>
0.384 

> <ROCS_ColorTanimoto>
0.050 

> <ROCS_RefTversky>
0.334 

> <ROCS_RefColorTversky>
0.055 

> <ROCS_RefTverskyCombo>
0.389 

> <ROCS_FitTversky>
1.647 

> <ROCS_FitColorTversky>
0.349 

> <ROCS_FitTverskyCombo>
1.996 

> <ROCS_ColorScore>
-3.977

> <ROCS_Overlap>
2227.869

> <ROCS_Rank>
346                 

$$$$
untitled-dbase-75008_148
  -OEChem-08222312023D

 46 48  0     0  0  0  0  0  0999 V2000
   -7.6962    6.2534  -14.7557 C   0  0  0  0  0  0  0  0  0  0  0  0
   -7.4127    6.3690  -16.0570 C   0  0  0  0  0  0  0  0  0  0  0  0
   -9.5610    4.0504  -18.8474 C   0  0  0  0  0  0  0  0  0  0  0  0
   -9.3954    4.6236  -15.1826 C   0  0  0  0  0  0  0  0  0  0  0  0
   -8.7230    5.3527  -14.2754 C   0  0  0  0  0  0  0  0  0  0  0  0
   -8.5955    4.9104  -19.1875 C   0  0  0  0  0  0  0  0  0  0  0  0
   -8.1644    5.5560  -17.0526 C   0  0  0  0  0  0  0  0  0  0  0  0
   -9.9043    3.8953  -17.4144 C   0  0  0  0  0  0  0  0  0  0  0  0
   -8.6411    5.3513   -8.7937 C   0  0  0  0  0  0  0  0  0  0  0  0
   -8.7984    4.0535  -12.1652 C   0  0  0  0  0  0  0  0  0  0  0  0
   -9.4870    6.4274  -12.1760 C   0  0  0  0  0  0  0  0  0  0  0  0
   -7.9309    4.3115  -10.9357 C   0  0  0  0  0  0  0  0  0  0  0  0
   -8.6205    6.6853  -10.9448 C   0  0  0  0  0  0  0  0  0  0  0  0
  -10.7065    3.8054   -8.3139 C   0  0  0  0  0  0  0  0  0  0  0  0
   -9.1238    1.9042   -7.8782 C   0  0  0  0  0  0  0  0  0  0  0  0
   -9.3794    3.7338   -6.1766 C   0  0  0  0  0  0  0  0  0  0  0  0
   -9.3851    3.3939   -7.6663 C   0  0  0  0  0  0  0  0  0  0  0  0
   -7.8771    5.6794  -18.3144 N   0  0  0  0  0  0  0  0  0  0  0  0
   -9.1499    4.6962  -16.5497 N   0  0  0  0  0  0  0  0  0  0  0  0
   -8.9519    5.2923  -12.9320 N   0  0  0  0  0  0  0  0  0  0  0  0
   -8.4360    5.4523  -10.1716 N   0  0  0  0  0  0  0  0  0  0  0  0
  -10.7913    3.1060  -17.0960 O   0  0  0  0  0  0  0  0  0  0  0  0
   -9.0621    6.2655   -8.0873 O   0  0  0  0  0  0  0  0  0  0  0  0
   -8.3223    4.1132   -8.3023 O   0  0  0  0  0  0  0  0  0  0  0  0
   -8.1882    5.0972  -20.8627 Cl  0  0  0  0  0  0  0  0  0  0  0  0
   -7.1462    6.8476  -14.0322 H   0  0  0  0  0  0  0  0  0  0  0  0
   -6.6435    7.0443  -16.4133 H   0  0  0  0  0  0  0  0  0  0  0  0
  -10.1091    3.4570  -19.5702 H   0  0  0  0  0  0  0  0  0  0  0  0
  -10.1733    3.9356  -14.8657 H   0  0  0  0  0  0  0  0  0  0  0  0
   -8.3350    3.2652  -12.7708 H   0  0  0  0  0  0  0  0  0  0  0  0
   -9.7875    3.6879  -11.8631 H   0  0  0  0  0  0  0  0  0  0  0  0
  -10.5193    6.2099  -11.8756 H   0  0  0  0  0  0  0  0  0  0  0  0
   -9.5149    7.3360  -12.7895 H   0  0  0  0  0  0  0  0  0  0  0  0
   -7.8962    3.4136  -10.3106 H   0  0  0  0  0  0  0  0  0  0  0  0
   -6.9013    4.5451  -11.2323 H   0  0  0  0  0  0  0  0  0  0  0  0
   -7.6247    7.0350  -11.2421 H   0  0  0  0  0  0  0  0  0  0  0  0
   -9.0742    7.4728  -10.3370 H   0  0  0  0  0  0  0  0  0  0  0  0
  -10.8977    4.8740   -8.1640 H   0  0  0  0  0  0  0  0  0  0  0  0
  -10.7102    3.5990   -9.3892 H   0  0  0  0  0  0  0  0  0  0  0  0
  -11.5485    3.2735   -7.8565 H   0  0  0  0  0  0  0  0  0  0  0  0
   -8.1767    1.6045   -7.4151 H   0  0  0  0  0  0  0  0  0  0  0  0
   -9.0327    1.6719   -8.9454 H   0  0  0  0  0  0  0  0  0  0  0  0
   -9.9256    1.2894   -7.4568 H   0  0  0  0  0  0  0  0  0  0  0  0
   -8.4317    3.4387   -5.7118 H   0  0  0  0  0  0  0  0  0  0  0  0
   -9.5287    4.8050   -6.0067 H   0  0  0  0  0  0  0  0  0  0  0  0
  -10.1671    3.1843   -5.6485 H   0  0  0  0  0  0  0  0  0  0  0  0
  1  2  2  0  0  0  0
  1  5  1  0  0  0  0
  2  7  1  0  0  0  0
  3  6  2  0  0  0  0
  3  8  1  0  0  0  0
  4  5  2  0  0  0  0
  4 19  1  0  0  0  0
  5 20  1  0  0  0  0
  6 18  1  0  0  0  0
  6 25  1  0  0  0  0
  7 18  2  0  0  0  0
  7 19  1  0  0  0  0
  8 19  1  0  0  0  0
  8 22  2  0  0  0  0
  9 21  1  0  0  0  0
  9 23  2  0  0  0  0
  9 24  1  0  0  0  0
 10 12  1  0  0  0  0
 10 20  1  0  0  0  0
 11 13  1  0  0  0  0
 11 20  1  0  0  0  0
 12 21  1  0  0  0  0
 13 21  1  0  0  0  0
 14 17  1  0  0  0  0
 15 17  1  0  0  0  0
 16 17  1  0  0  0  0
 17 24  1  0  0  0  0
  1 26  1  0  0  0  0
  2 27  1  0  0  0  0
  3 28  1  0  0  0  0
  4 29  1  0  0  0  0
 10 30  1  0  0  0  0
 10 31  1  0  0  0  0
 11 32  1  0  0  0  0
 11 33  1  0  0  0  0
 12 34  1  0  0  0  0
 12 35  1  0  0  0  0
 13 36  1  0  0  0  0
 13 37  1  0  0  0  0
 14 38  1  0  0  0  0
 14 39  1  0  0  0  0
 14 40  1  0  0  0  0
 15 41  1  0  0  0  0
 15 42  1  0  0  0  0
 15 43  1  0  0  0  0
 16 44  1  0  0  0  0
 16 45  1  0  0  0  0
 16 46  1  0  0  0  0
M  END
> <id>
EN300-1083420

> <smiles>
CC(C)(C)OC(=O)N1CCN(CC1)C=2C=CC3=NC(Cl)=CC(=O)N3C2

> <IUPAC Name>
tert-butyl 4-{2-chloro-4-oxo-4H-pyrido[1,2-a]pyrimidin-7-yl}piperazine-1-carboxylate

> <CAS>
2138005-30-6

> <URL>
https://www.enaminestore.com/catalog/EN300-1083420

> <ROCS_ShapeQuery>
_x0404_0B

> <ROCS_TanimotoCombo>
0.434 

> <ROCS_ShapeTanimoto>
0.382 

> <ROCS_ColorTanimoto>
0.051 

> <ROCS_RefTversky>
0.336 

> <ROCS_RefColorTversky>
0.056 

> <ROCS_RefTverskyCombo>
0.392 

> <ROCS_FitTversky>
1.571 

> <ROCS_FitColorTversky>
0.387 

> <ROCS_FitTverskyCombo>
1.958 

> <ROCS_ColorScore>
-4.039

> <ROCS_Overlap>
2242.830

> <ROCS_Rank>
347                 

$$$$
untitled-dbase-106501_3941
  -OEChem-08222312023D

 43 44  0     1  0  0  0  0  0999 V2000
   -6.4365    6.0512  -17.2205 C   0  0  0  0  0  0  0  0  0  0  0  0
   -8.9603    5.1486   -9.2857 C   0  0  0  0  0  0  0  0  0  0  0  0
   -8.6206    6.0991  -14.9067 C   0  0  0  0  0  0  0  0  0  0  0  0
   -8.7478    3.8732  -15.9893 C   0  0  0  0  0  0  0  0  0  0  0  0
   -8.8254    6.3726  -11.5535 C   0  0  0  0  0  0  0  0  0  0  0  0
   -8.7233    4.2347  -11.6699 C   0  0  0  0  0  0  0  0  0  0  0  0
   -9.9726    3.5775  -16.8465 C   0  0  0  0  0  0  0  0  0  0  0  0
   -8.1913    4.9157  -18.5143 C   0  0  0  0  0  0  0  0  0  0  0  0
   -7.8914    5.8232  -17.3120 C   0  0  1  0  0  0  0  0  0  0  0  0
   -8.3977    5.3776  -12.6455 C   0  0  0  0  0  0  0  0  0  0  0  0
  -10.3742    4.1926   -6.9968 C   0  0  0  0  0  0  0  0  0  0  0  0
   -8.9709    2.1218   -7.2244 C   0  0  0  0  0  0  0  0  0  0  0  0
   -7.8717    4.3336   -6.7682 C   0  0  0  0  0  0  0  0  0  0  0  0
   -9.0339    3.6284   -7.4659 C   0  0  0  0  0  0  0  0  0  0  0  0
   -5.2924    6.2305  -17.1485 N   0  0  0  0  0  0  0  0  0  0  0  0
   -8.8406    5.2476  -10.6439 N   0  0  0  0  0  0  0  0  0  0  0  0
   -8.3991    5.2919  -16.0318 N   0  0  0  0  0  0  0  0  0  0  0  0
   -9.0891    6.1091   -8.5319 O   0  0  0  0  0  0  0  0  0  0  0  0
   -8.3593    7.2992  -14.8503 O   0  0  0  0  0  0  0  0  0  0  0  0
   -9.1670    5.4021  -13.8605 O   0  0  0  0  0  0  0  0  0  0  0  0
   -8.9174    3.8444   -8.8766 O   0  0  0  0  0  0  0  0  0  0  0  0
   -9.9086    4.3153  -18.5139 S   0  0  0  0  0  0  0  0  0  0  0  0
   -8.9597    3.5662  -14.9660 H   0  0  0  0  0  0  0  0  0  0  0  0
   -7.8849    3.2971  -16.3251 H   0  0  0  0  0  0  0  0  0  0  0  0
   -8.0826    7.1348  -11.3058 H   0  0  0  0  0  0  0  0  0  0  0  0
   -9.8111    6.8280  -11.6840 H   0  0  0  0  0  0  0  0  0  0  0  0
   -9.6623    3.7051  -11.8540 H   0  0  0  0  0  0  0  0  0  0  0  0
   -7.9115    3.5235  -11.4992 H   0  0  0  0  0  0  0  0  0  0  0  0
  -10.0834    2.4838  -16.9659 H   0  0  0  0  0  0  0  0  0  0  0  0
  -10.8949    3.9193  -16.3382 H   0  0  0  0  0  0  0  0  0  0  0  0
   -8.0271    5.4599  -19.4426 H   0  0  0  0  0  0  0  0  0  0  0  0
   -7.5357    4.0471  -18.5124 H   0  0  0  0  0  0  0  0  0  0  0  0
   -8.3401    6.7811  -17.5277 H   0  0  0  0  0  0  0  0  0  0  0  0
   -7.3271    5.4417  -12.8773 H   0  0  0  0  0  0  0  0  0  0  0  0
  -10.4234    5.2739   -7.1684 H   0  0  0  0  0  0  0  0  0  0  0  0
  -11.2146    3.7197   -7.5152 H   0  0  0  0  0  0  0  0  0  0  0  0
  -10.5050    4.0445   -5.9187 H   0  0  0  0  0  0  0  0  0  0  0  0
   -8.0109    1.7128   -7.5596 H   0  0  0  0  0  0  0  0  0  0  0  0
   -9.7457    1.6017   -7.7993 H   0  0  0  0  0  0  0  0  0  0  0  0
   -9.1015    1.8766   -6.1655 H   0  0  0  0  0  0  0  0  0  0  0  0
   -6.9102    3.9290   -7.1045 H   0  0  0  0  0  0  0  0  0  0  0  0
   -7.8796    5.4113   -6.9608 H   0  0  0  0  0  0  0  0  0  0  0  0
   -7.9126    4.1732   -5.6847 H   0  0  0  0  0  0  0  0  0  0  0  0
  1  9  1  0  0  0  0
  1 15  3  0  0  0  0
  2 16  1  0  0  0  0
  2 18  2  0  0  0  0
  2 21  1  0  0  0  0
  3 17  1  0  0  0  0
  3 19  2  0  0  0  0
  3 20  1  0  0  0  0
  4  7  1  0  0  0  0
  4 17  1  0  0  0  0
  5 10  1  0  0  0  0
  5 16  1  0  0  0  0
  6 10  1  0  0  0  0
  6 16  1  0  0  0  0
  7 22  1  0  0  0  0
  8  9  1  0  0  0  0
  8 22  1  0  0  0  0
  9 17  1  0  0  0  0
 10 20  1  0  0  0  0
 11 14  1  0  0  0  0
 12 14  1  0  0  0  0
 13 14  1  0  0  0  0
 14 21  1  0  0  0  0
  4 23  1  0  0  0  0
  4 24  1  0  0  0  0
  5 25  1  0  0  0  0
  5 26  1  0  0  0  0
  6 27  1  0  0  0  0
  6 28  1  0  0  0  0
  7 29  1  0  0  0  0
  7 30  1  0  0  0  0
  8 31  1  0  0  0  0
  8 32  1  0  0  0  0
  9 33  1  0  0  0  0
 10 34  1  0  0  0  0
 11 35  1  0  0  0  0
 11 36  1  0  0  0  0
 11 37  1  0  0  0  0
 12 38  1  0  0  0  0
 12 39  1  0  0  0  0
 12 40  1  0  0  0  0
 13 41  1  0  0  0  0
 13 42  1  0  0  0  0
 13 43  1  0  0  0  0
M  END
> <id>
EN300-6702839

> <smiles>
CC(C)(C)OC(=O)N1CC(C1)OC(=O)N2CCSCC2C#N

> <IUPAC Name>
1-[(tert-butoxy)carbonyl]azetidin-3-yl 3-cyanothiomorpholine-4-carboxylate

> <CAS>
2189497-66-1

> <URL>
https://www.enaminestore.com/catalog/EN300-6702839

> <ROCS_ShapeQuery>
_x0404_0B

> <ROCS_TanimotoCombo>
0.434 

> <ROCS_ShapeTanimoto>
0.369 

> <ROCS_ColorTanimoto>
0.064 

> <ROCS_RefTversky>
0.320 

> <ROCS_RefColorTversky>
0.069 

> <ROCS_RefTverskyCombo>
0.389 

> <ROCS_FitTversky>
1.707 

> <ROCS_FitColorTversky>
0.521 

> <ROCS_FitTverskyCombo>
2.228 

> <ROCS_ColorScore>
-4.940

> <ROCS_Overlap>
2136.978

> <ROCS_Rank>
348                 

$$$$
untitled-dbase-140675_5
  -OEChem-08222312023D

 56 58  0     1  0  0  0  0  0999 V2000
   -8.7598    4.8068  -16.2751 B   0  0  0  0  0  0  0  0  0  0  0  0
   -9.1257    3.4987  -14.0909 C   0  0  0  0  0  0  0  0  0  0  0  0
   -9.1921    3.3974  -12.6978 C   0  0  0  0  0  0  0  0  0  0  0  0
   -8.5965    5.8629  -13.9408 C   0  0  0  0  0  0  0  0  0  0  0  0
   -8.8315    4.7226  -14.7086 C   0  0  0  0  0  0  0  0  0  0  0  0
   -8.6716    5.7554  -12.5606 C   0  0  0  0  0  0  0  0  0  0  0  0
   -8.9673    4.5387  -11.9425 C   0  0  0  0  0  0  0  0  0  0  0  0
   -9.0914    3.6824   -9.6038 C   0  0  0  0  0  0  0  0  0  0  0  0
   -8.3974    6.8298  -11.5549 C   0  0  0  0  0  0  0  0  0  0  0  0
   -8.8215    6.1499  -10.2353 C   0  0  1  0  0  0  0  0  0  0  0  0
   -9.4424    4.8818  -18.4599 C   0  0  0  0  0  0  0  0  0  0  0  0
   -7.8811    4.9637  -18.3842 C   0  0  0  0  0  0  0  0  0  0  0  0
  -10.1313    6.7474   -9.7124 C   0  0  0  0  0  0  0  0  0  0  0  0
  -10.1485    6.2195  -18.7761 C   0  0  0  0  0  0  0  0  0  0  0  0
   -9.9822    3.8231  -19.4317 C   0  0  0  0  0  0  0  0  0  0  0  0
   -7.2605    6.1182  -19.1833 C   0  0  0  0  0  0  0  0  0  0  0  0
   -7.1426    3.6644  -18.7772 C   0  0  0  0  0  0  0  0  0  0  0  0
   -7.9632    2.2092   -7.4223 C   0  0  0  0  0  0  0  0  0  0  0  0
   -9.0183    3.9454   -5.9453 C   0  0  0  0  0  0  0  0  0  0  0  0
  -10.4648    2.4834   -7.3870 C   0  0  0  0  0  0  0  0  0  0  0  0
   -9.1188    3.1976   -7.2731 C   0  0  0  0  0  0  0  0  0  0  0  0
   -8.9776    4.7015  -10.5416 N   0  0  0  0  0  0  0  0  0  0  0  0
   -9.2202    2.4872   -9.8544 O   0  0  0  0  0  0  0  0  0  0  0  0
   -9.8387    4.4984  -17.1036 O   0  0  0  0  0  0  0  0  0  0  0  0
   -7.6115    5.1969  -16.9641 O   0  0  0  0  0  0  0  0  0  0  0  0
   -9.0271    4.1678   -8.3227 O   0  0  0  0  0  0  0  0  0  0  0  0
   -9.3088    2.6005  -14.6791 H   0  0  0  0  0  0  0  0  0  0  0  0
   -9.4270    2.4381  -12.2529 H   0  0  0  0  0  0  0  0  0  0  0  0
   -8.3511    6.8213  -14.3915 H   0  0  0  0  0  0  0  0  0  0  0  0
   -7.3258    7.0557  -11.5449 H   0  0  0  0  0  0  0  0  0  0  0  0
   -8.9680    7.7380  -11.7719 H   0  0  0  0  0  0  0  0  0  0  0  0
   -8.0458    6.2715   -9.4698 H   0  0  0  0  0  0  0  0  0  0  0  0
  -10.9096    6.6331  -10.4630 H   0  0  0  0  0  0  0  0  0  0  0  0
   -9.9902    7.8040   -9.4981 H   0  0  0  0  0  0  0  0  0  0  0  0
  -10.4297    6.2320   -8.8027 H   0  0  0  0  0  0  0  0  0  0  0  0
  -11.2181    6.0535  -18.8054 H   0  0  0  0  0  0  0  0  0  0  0  0
   -9.8031    6.5803  -19.7367 H   0  0  0  0  0  0  0  0  0  0  0  0
   -9.9057    6.9363  -18.0016 H   0  0  0  0  0  0  0  0  0  0  0  0
  -11.0681    3.8396  -19.4170 H   0  0  0  0  0  0  0  0  0  0  0  0
   -9.6300    2.8416  -19.1284 H   0  0  0  0  0  0  0  0  0  0  0  0
   -9.6294    4.0412  -20.4355 H   0  0  0  0  0  0  0  0  0  0  0  0
   -6.1803    6.0950  -19.0719 H   0  0  0  0  0  0  0  0  0  0  0  0
   -7.6435    7.0632  -18.8093 H   0  0  0  0  0  0  0  0  0  0  0  0
   -7.5195    6.0113  -20.2327 H   0  0  0  0  0  0  0  0  0  0  0  0
   -6.0756    3.8275  -18.6911 H   0  0  0  0  0  0  0  0  0  0  0  0
   -7.3976    3.4110  -19.7985 H   0  0  0  0  0  0  0  0  0  0  0  0
   -7.4512    2.8697  -18.1097 H   0  0  0  0  0  0  0  0  0  0  0  0
   -8.0317    1.6704   -8.3741 H   0  0  0  0  0  0  0  0  0  0  0  0
   -6.9925    2.7137   -7.3773 H   0  0  0  0  0  0  0  0  0  0  0  0
   -7.9948    1.4487   -6.6337 H   0  0  0  0  0  0  0  0  0  0  0  0
   -9.8455    4.6557   -5.8340 H   0  0  0  0  0  0  0  0  0  0  0  0
   -8.0961    4.5358   -5.8987 H   0  0  0  0  0  0  0  0  0  0  0  0
   -9.0339    3.2587   -5.0927 H   0  0  0  0  0  0  0  0  0  0  0  0
  -11.2939    3.1922   -7.2800 H   0  0  0  0  0  0  0  0  0  0  0  0
  -10.5697    1.9717   -8.3492 H   0  0  0  0  0  0  0  0  0  0  0  0
  -10.5835    1.7455   -6.5854 H   0  0  0  0  0  0  0  0  0  0  0  0
  1  5  1  0  0  0  0
  1 24  1  0  0  0  0
  1 25  1  0  0  0  0
  2  3  1  0  0  0  0
  2  5  2  0  0  0  0
  3  7  2  0  0  0  0
  4  5  1  0  0  0  0
  4  6  2  0  0  0  0
  6  7  1  0  0  0  0
  6  9  1  0  0  0  0
  7 22  1  0  0  0  0
  8 22  1  0  0  0  0
  8 23  2  0  0  0  0
  8 26  1  0  0  0  0
  9 10  1  0  0  0  0
 10 13  1  6  0  0  0
 10 22  1  0  0  0  0
 11 12  1  0  0  0  0
 11 14  1  0  0  0  0
 11 15  1  0  0  0  0
 11 24  1  0  0  0  0
 12 16  1  0  0  0  0
 12 17  1  0  0  0  0
 12 25  1  0  0  0  0
 18 21  1  0  0  0  0
 19 21  1  0  0  0  0
 20 21  1  0  0  0  0
 21 26  1  0  0  0  0
  2 27  1  0  0  0  0
  3 28  1  0  0  0  0
  4 29  1  0  0  0  0
  9 30  1  0  0  0  0
  9 31  1  0  0  0  0
 10 32  1  0  0  0  0
 13 33  1  0  0  0  0
 13 34  1  0  0  0  0
 13 35  1  0  0  0  0
 14 36  1  0  0  0  0
 14 37  1  0  0  0  0
 14 38  1  0  0  0  0
 15 39  1  0  0  0  0
 15 40  1  0  0  0  0
 15 41  1  0  0  0  0
 16 42  1  0  0  0  0
 16 43  1  0  0  0  0
 16 44  1  0  0  0  0
 17 45  1  0  0  0  0
 17 46  1  0  0  0  0
 17 47  1  0  0  0  0
 18 48  1  0  0  0  0
 18 49  1  0  0  0  0
 18 50  1  0  0  0  0
 19 51  1  0  0  0  0
 19 52  1  0  0  0  0
 19 53  1  0  0  0  0
 20 54  1  0  0  0  0
 20 55  1  0  0  0  0
 20 56  1  0  0  0  0
M  END
> <id>
EN300-27151262

> <smiles>
C[C@@H]1CC=2C=C(C=CC2N1C(=O)OC(C)(C)C)B3OC(C)(C)C(C)(C)O3

> <MDLNUMBER>
MFCD32859881

> <IUPAC Name>
tert-butyl (2R)-2-methyl-5-(4,4,5,5-tetramethyl-1,3,2-dioxaborolan-2-yl)-2,3-dihydro-1H-indole-1-carboxylate

> <Purity>
95

> <URL>
https://www.enaminestore.com/catalog/EN300-27151262

> <ROCS_ShapeQuery>
_x0404_0B

> <ROCS_TanimotoCombo>
0.434 

> <ROCS_ShapeTanimoto>
0.393 

> <ROCS_ColorTanimoto>
0.041 

> <ROCS_RefTversky>
0.344 

> <ROCS_RefColorTversky>
0.045 

> <ROCS_RefTverskyCombo>
0.388 

> <ROCS_FitTversky>
1.575 

> <ROCS_FitColorTversky>
0.309 

> <ROCS_FitTverskyCombo>
1.884 

> <ROCS_ColorScore>
-3.231

> <ROCS_Overlap>
2296.841

> <ROCS_Rank>
349                 

$$$$
untitled-dbase-92178_431
  -OEChem-08222312023D

 44 46  0     1  0  0  0  0  0999 V2000
   -9.8900    3.9147  -17.8652 C   0  0  0  0  0  0  0  0  0  0  0  0
   -9.6309    4.2984  -16.5542 C   0  0  0  0  0  0  0  0  0  0  0  0
   -9.0374    4.3744  -18.8560 C   0  0  0  0  0  0  0  0  0  0  0  0
   -8.5426    5.1185  -16.2778 C   0  0  0  0  0  0  0  0  0  0  0  0
   -7.7502    5.5241  -17.3396 C   0  0  0  0  0  0  0  0  0  0  0  0
   -9.2826    5.4047   -9.1702 C   0  0  0  0  0  0  0  0  0  0  0  0
   -9.2654    4.9756  -13.8015 C   0  0  0  0  0  0  0  0  0  0  0  0
   -8.8703    6.2670  -11.5653 C   0  0  0  0  0  0  0  0  0  0  0  0
   -8.9337    4.1270  -11.3637 C   0  0  0  0  0  0  0  0  0  0  0  0
   -6.9262    5.0611  -14.2798 C   0  0  0  0  0  0  0  0  0  0  0  0
   -8.2766    5.5254  -14.8426 C   0  0  1  0  0  0  0  0  0  0  0  0
   -8.4928    5.0848  -12.4891 C   0  0  0  0  0  0  0  0  0  0  0  0
   -9.0878    4.4585   -6.4835 C   0  0  0  0  0  0  0  0  0  0  0  0
  -10.3598    2.4501   -7.2942 C   0  0  0  0  0  0  0  0  0  0  0  0
   -8.0968    2.9677   -8.2527 C   0  0  0  0  0  0  0  0  0  0  0  0
   -9.3851    3.5596   -7.6828 C   0  0  0  0  0  0  0  0  0  0  0  0
   -7.9704    5.1720  -18.6262 N   0  0  0  0  0  0  0  0  0  0  0  0
   -9.0532    5.2910  -10.5134 N   0  0  0  0  0  0  0  0  0  0  0  0
   -8.8831    6.3369   -8.4780 O   0  0  0  0  0  0  0  0  0  0  0  0
   -7.0913    5.0279  -12.8545 O   0  0  0  0  0  0  0  0  0  0  0  0
   -8.3309    6.9558  -14.8195 O   0  0  0  0  0  0  0  0  0  0  0  0
  -10.0128    4.3488   -8.6992 O   0  0  0  0  0  0  0  0  0  0  0  0
   -6.2416    6.6486  -17.0351 Br  0  0  0  0  0  0  0  0  0  0  0  0
  -10.7329    3.2765  -18.1042 H   0  0  0  0  0  0  0  0  0  0  0  0
  -10.2829    3.9533  -15.7563 H   0  0  0  0  0  0  0  0  0  0  0  0
   -9.1964    4.1042  -19.8948 H   0  0  0  0  0  0  0  0  0  0  0  0
  -10.2098    5.5316  -13.7822 H   0  0  0  0  0  0  0  0  0  0  0  0
   -9.4924    3.9220  -14.0129 H   0  0  0  0  0  0  0  0  0  0  0  0
   -8.0629    6.9733  -11.3521 H   0  0  0  0  0  0  0  0  0  0  0  0
   -9.7831    6.8098  -11.8230 H   0  0  0  0  0  0  0  0  0  0  0  0
   -9.8802    3.6028  -11.5190 H   0  0  0  0  0  0  0  0  0  0  0  0
   -8.1697    3.4256  -11.0165 H   0  0  0  0  0  0  0  0  0  0  0  0
   -6.6624    4.0481  -14.6027 H   0  0  0  0  0  0  0  0  0  0  0  0
   -6.1091    5.7474  -14.5227 H   0  0  0  0  0  0  0  0  0  0  0  0
   -8.3884    5.2562   -6.7584 H   0  0  0  0  0  0  0  0  0  0  0  0
   -9.9996    4.9169   -6.0870 H   0  0  0  0  0  0  0  0  0  0  0  0
   -8.6077    3.8904   -5.6785 H   0  0  0  0  0  0  0  0  0  0  0  0
  -10.5760    1.8026   -8.1517 H   0  0  0  0  0  0  0  0  0  0  0  0
  -11.3206    2.8691   -6.9739 H   0  0  0  0  0  0  0  0  0  0  0  0
   -9.9641    1.8304   -6.4830 H   0  0  0  0  0  0  0  0  0  0  0  0
   -8.3098    2.3229   -9.1130 H   0  0  0  0  0  0  0  0  0  0  0  0
   -7.4000    3.7499   -8.5712 H   0  0  0  0  0  0  0  0  0  0  0  0
   -7.5959    2.3366   -7.5097 H   0  0  0  0  0  0  0  0  0  0  0  0
   -8.1616    7.2281  -13.9030 H   0  0  0  0  0  0  0  0  0  0  0  0
  1  2  1  0  0  0  0
  1  3  2  0  0  0  0
  2  4  2  0  0  0  0
  3 17  1  0  0  0  0
  4  5  1  0  0  0  0
  4 11  1  0  0  0  0
  5 17  2  0  0  0  0
  5 23  1  0  0  0  0
  6 18  1  0  0  0  0
  6 19  2  0  0  0  0
  6 22  1  0  0  0  0
  7 11  1  0  0  0  0
  7 12  1  0  0  0  0
  8 12  1  0  0  0  0
  8 18  1  0  0  0  0
  9 12  1  0  0  0  0
  9 18  1  0  0  0  0
 10 11  1  0  0  0  0
 10 20  1  0  0  0  0
 11 21  1  0  0  0  0
 12 20  1  0  0  0  0
 13 16  1  0  0  0  0
 14 16  1  0  0  0  0
 15 16  1  0  0  0  0
 16 22  1  0  0  0  0
  1 24  1  0  0  0  0
  2 25  1  0  0  0  0
  3 26  1  0  0  0  0
  7 27  1  0  0  0  0
  7 28  1  0  0  0  0
  8 29  1  0  0  0  0
  8 30  1  0  0  0  0
  9 31  1  0  0  0  0
  9 32  1  0  0  0  0
 10 33  1  0  0  0  0
 10 34  1  0  0  0  0
 13 35  1  0  0  0  0
 13 36  1  0  0  0  0
 13 37  1  0  0  0  0
 14 38  1  0  0  0  0
 14 39  1  0  0  0  0
 14 40  1  0  0  0  0
 15 41  1  0  0  0  0
 15 42  1  0  0  0  0
 15 43  1  0  0  0  0
 21 44  1  0  0  0  0
M  END
> <id>
EN300-7428896

> <smiles>
CC(C)(C)OC(=O)N1CC2(C1)CC(O)(CO2)C=3C=CC=NC3Br

> <IUPAC Name>
tert-butyl 7-(2-bromopyridin-3-yl)-7-hydroxy-5-oxa-2-azaspiro[3.4]octane-2-carboxylate

> <CAS>
2309445-28-9

> <URL>
https://www.enaminestore.com/catalog/EN300-7428896

> <ROCS_ShapeQuery>
_x0404_0B

> <ROCS_TanimotoCombo>
0.434 

> <ROCS_ShapeTanimoto>
0.368 

> <ROCS_ColorTanimoto>
0.066 

> <ROCS_RefTversky>
0.323 

> <ROCS_RefColorTversky>
0.073 

> <ROCS_RefTverskyCombo>
0.395 

> <ROCS_FitTversky>
1.620 

> <ROCS_FitColorTversky>
0.397 

> <ROCS_FitTverskyCombo>
2.016 

> <ROCS_ColorScore>
-5.269

> <ROCS_Overlap>
2154.159

> <ROCS_Rank>
350                 

$$$$
untitled-dbase-167566_511
  -OEChem-08222312023D

 55 57  0     1  0  0  0  0  0999 V2000
   -8.6953    6.1342  -12.2093 C   0  0  0  0  0  0  0  0  0  0  0  0
   -8.7788    6.5589  -10.8841 C   0  0  0  0  0  0  0  0  0  0  0  0
   -8.8097    3.8367  -11.4770 C   0  0  0  0  0  0  0  0  0  0  0  0
   -8.7072    4.7734  -12.5057 C   0  0  0  0  0  0  0  0  0  0  0  0
   -8.9061    4.2536  -10.1424 C   0  0  0  0  0  0  0  0  0  0  0  0
   -8.8724    5.6223   -9.8507 C   0  0  0  0  0  0  0  0  0  0  0  0
   -7.5277    5.9426  -15.5151 C   0  0  0  0  0  0  0  0  0  0  0  0
   -9.0105    3.2327   -9.0486 C   0  0  0  0  0  0  0  0  0  0  0  0
   -9.5274    3.8821   -7.7726 C   0  0  0  0  0  0  0  0  0  0  0  0
   -6.2722    2.6897  -14.6289 C   0  0  0  0  0  0  0  0  0  0  0  0
   -6.1470    4.1824  -14.3402 C   0  0  0  0  0  0  0  0  0  0  0  0
   -8.6540    2.7833  -14.2233 C   0  0  0  0  0  0  0  0  0  0  0  0
   -8.6095    4.3060  -13.9579 C   0  0  2  0  0  0  0  0  0  0  0  0
   -8.8088    5.2112   -7.4886 C   0  0  0  0  0  0  0  0  0  0  0  0
   -7.3157    5.0243   -7.1794 C   0  0  0  0  0  0  0  0  0  0  0  0
   -9.4761    5.8864   -6.2815 C   0  0  0  0  0  0  0  0  0  0  0  0
   -7.9749    7.0862  -18.1003 C   0  0  0  0  0  0  0  0  0  0  0  0
   -5.9293    5.8142  -18.8124 C   0  0  0  0  0  0  0  0  0  0  0  0
   -7.9542    4.5715  -17.9979 C   0  0  0  0  0  0  0  0  0  0  0  0
   -7.1198    5.8436  -17.8563 C   0  0  0  0  0  0  0  0  0  0  0  0
   -7.3976    2.0909  -13.9097 N   0  0  0  0  0  0  0  0  0  0  0  0
   -7.4139    4.8625  -14.6306 N   0  0  0  0  0  0  0  0  0  0  0  0
   -8.3632    6.8389  -15.4100 O   0  0  0  0  0  0  0  0  0  0  0  0
   -8.9466    6.1369   -8.5832 O   0  0  0  0  0  0  0  0  0  0  0  0
   -6.6007    5.9023  -16.5226 O   0  0  0  0  0  0  0  0  0  0  0  0
   -8.6187    6.8717  -13.0038 H   0  0  0  0  0  0  0  0  0  0  0  0
   -8.7646    7.6230  -10.6623 H   0  0  0  0  0  0  0  0  0  0  0  0
   -8.8195    2.7746  -11.7128 H   0  0  0  0  0  0  0  0  0  0  0  0
   -9.6938    2.4272   -9.3427 H   0  0  0  0  0  0  0  0  0  0  0  0
   -8.0239    2.7861   -8.8794 H   0  0  0  0  0  0  0  0  0  0  0  0
  -10.6019    4.0756   -7.9006 H   0  0  0  0  0  0  0  0  0  0  0  0
   -9.4249    3.1864   -6.9313 H   0  0  0  0  0  0  0  0  0  0  0  0
   -6.3757    2.5179  -15.7091 H   0  0  0  0  0  0  0  0  0  0  0  0
   -5.3481    2.1872  -14.3171 H   0  0  0  0  0  0  0  0  0  0  0  0
   -5.9295    4.3494  -13.2882 H   0  0  0  0  0  0  0  0  0  0  0  0
   -5.3426    4.6087  -14.9296 H   0  0  0  0  0  0  0  0  0  0  0  0
   -9.4607    2.3217  -13.6432 H   0  0  0  0  0  0  0  0  0  0  0  0
   -8.8909    2.6108  -15.2805 H   0  0  0  0  0  0  0  0  0  0  0  0
   -9.5018    4.7516  -14.4873 H   0  0  0  0  0  0  0  0  0  0  0  0
   -6.8634    5.9928   -6.9880 H   0  0  0  0  0  0  0  0  0  0  0  0
   -6.8275    4.5568   -8.0291 H   0  0  0  0  0  0  0  0  0  0  0  0
   -7.2055    4.3921   -6.3035 H   0  0  0  0  0  0  0  0  0  0  0  0
   -8.9755    6.8270   -6.0722 H   0  0  0  0  0  0  0  0  0  0  0  0
   -9.4006    5.2344   -5.4164 H   0  0  0  0  0  0  0  0  0  0  0  0
  -10.5221    6.0733   -6.5056 H   0  0  0  0  0  0  0  0  0  0  0  0
   -8.8305    7.1109  -17.4160 H   0  0  0  0  0  0  0  0  0  0  0  0
   -7.3966    8.0063  -17.9675 H   0  0  0  0  0  0  0  0  0  0  0  0
   -8.3904    7.0819  -19.1146 H   0  0  0  0  0  0  0  0  0  0  0  0
   -5.3130    4.9244  -18.6408 H   0  0  0  0  0  0  0  0  0  0  0  0
   -5.2757    6.6787  -18.6486 H   0  0  0  0  0  0  0  0  0  0  0  0
   -6.2514    5.8164  -19.8588 H   0  0  0  0  0  0  0  0  0  0  0  0
   -7.3411    3.6800  -17.8229 H   0  0  0  0  0  0  0  0  0  0  0  0
   -8.7922    4.5583  -17.2935 H   0  0  0  0  0  0  0  0  0  0  0  0
   -8.3526    4.4780  -19.0147 H   0  0  0  0  0  0  0  0  0  0  0  0
   -7.4825    1.1087  -14.1703 H   0  0  0  0  0  0  0  0  0  0  0  0
  1  2  1  0  0  0  0
  1  4  2  0  0  0  0
  2  6  2  0  0  0  0
  3  4  1  0  0  0  0
  3  5  2  0  0  0  0
  4 13  1  0  0  0  0
  5  6  1  0  0  0  0
  5  8  1  0  0  0  0
  6 24  1  0  0  0  0
  7 22  1  0  0  0  0
  7 23  2  0  0  0  0
  7 25  1  0  0  0  0
  8  9  1  0  0  0  0
  9 14  1  0  0  0  0
 10 11  1  0  0  0  0
 10 21  1  0  0  0  0
 11 22  1  0  0  0  0
 12 13  1  0  0  0  0
 12 21  1  0  0  0  0
 13 22  1  0  0  0  0
 14 15  1  0  0  0  0
 14 16  1  0  0  0  0
 14 24  1  0  0  0  0
 17 20  1  0  0  0  0
 18 20  1  0  0  0  0
 19 20  1  0  0  0  0
 20 25  1  0  0  0  0
  1 26  1  0  0  0  0
  2 27  1  0  0  0  0
  3 28  1  0  0  0  0
  8 29  1  0  0  0  0
  8 30  1  0  0  0  0
  9 31  1  0  0  0  0
  9 32  1  0  0  0  0
 10 33  1  0  0  0  0
 10 34  1  0  0  0  0
 11 35  1  0  0  0  0
 11 36  1  0  0  0  0
 12 37  1  0  0  0  0
 12 38  1  0  0  0  0
 13 39  1  0  0  0  0
 15 40  1  0  0  0  0
 15 41  1  0  0  0  0
 15 42  1  0  0  0  0
 16 43  1  0  0  0  0
 16 44  1  0  0  0  0
 16 45  1  0  0  0  0
 17 46  1  0  0  0  0
 17 47  1  0  0  0  0
 17 48  1  0  0  0  0
 18 49  1  0  0  0  0
 18 50  1  0  0  0  0
 18 51  1  0  0  0  0
 19 52  1  0  0  0  0
 19 53  1  0  0  0  0
 19 54  1  0  0  0  0
 21 55  1  0  0  0  0
M  END
> <id>
EN300-1902394

> <smiles>
CC(C)(C)OC(=O)N1CCNCC1C=2C=CC=3OC(C)(C)CCC3C2

> <IUPAC Name>
tert-butyl 2-(2,2-dimethyl-3,4-dihydro-2H-1-benzopyran-6-yl)piperazine-1-carboxylate

> <CAS>
2229237-19-6

> <URL>
https://www.enaminestore.com/catalog/EN300-1902394

> <ROCS_ShapeQuery>
_x0404_0B

> <ROCS_TanimotoCombo>
0.434 

> <ROCS_ShapeTanimoto>
0.341 

> <ROCS_ColorTanimoto>
0.092 

> <ROCS_RefTversky>
0.308 

> <ROCS_RefColorTversky>
0.099 

> <ROCS_RefTverskyCombo>
0.407 

> <ROCS_FitTversky>
1.460 

> <ROCS_FitColorTversky>
0.580 

> <ROCS_FitTverskyCombo>
2.040 

> <ROCS_ColorScore>
-7.152

> <ROCS_Overlap>
2058.938

> <ROCS_Rank>
351                 

$$$$
untitled-dbase-130671_182
  -OEChem-08222312023D

 45 46  0     0  0  0  0  0  0999 V2000
   -7.6146    3.0517  -14.5337 C   0  0  0  0  0  0  0  0  0  0  0  0
   -8.4405    6.6174  -16.6377 C   0  0  0  0  0  0  0  0  0  0  0  0
   -8.6539    6.5655  -15.2603 C   0  0  0  0  0  0  0  0  0  0  0  0
   -7.6857    4.3225  -16.6072 C   0  0  0  0  0  0  0  0  0  0  0  0
   -7.8992    4.2706  -15.2297 C   0  0  0  0  0  0  0  0  0  0  0  0
   -7.9564    5.4958  -17.3112 C   0  0  0  0  0  0  0  0  0  0  0  0
   -8.3833    5.3922  -14.5563 C   0  0  0  0  0  0  0  0  0  0  0  0
   -9.0851    5.2646   -8.9259 C   0  0  0  0  0  0  0  0  0  0  0  0
   -7.8978    6.2941  -12.2926 C   0  0  0  0  0  0  0  0  0  0  0  0
   -9.5780    4.4440  -12.5897 C   0  0  0  0  0  0  0  0  0  0  0  0
   -8.6984    6.5373  -11.0153 C   0  0  0  0  0  0  0  0  0  0  0  0
   -9.1944    4.1015  -11.1507 C   0  0  0  0  0  0  0  0  0  0  0  0
   -8.2368    4.3495   -6.3517 C   0  0  0  0  0  0  0  0  0  0  0  0
   -8.9141    2.0645   -7.1449 C   0  0  0  0  0  0  0  0  0  0  0  0
   -7.0790    3.3060   -8.3279 C   0  0  0  0  0  0  0  0  0  0  0  0
   -7.7297    5.5515  -18.7842 C   0  0  0  0  0  0  0  0  0  0  0  0
   -8.3978    3.4382   -7.5676 C   0  0  0  0  0  0  0  0  0  0  0  0
   -7.3840    2.0640  -13.9698 N   0  0  0  0  0  0  0  0  0  0  0  0
   -8.6065    5.3682  -13.1815 N   0  0  0  0  0  0  0  0  0  0  0  0
   -9.0043    5.2911  -10.3206 N   0  0  0  0  0  0  0  0  0  0  0  0
   -8.9129    6.2443   -8.2032 O   0  0  0  0  0  0  0  0  0  0  0  0
   -9.3731    4.0149   -8.4434 O   0  0  0  0  0  0  0  0  0  0  0  0
   -8.0382    6.7605  -19.3403 F   0  0  0  0  0  0  0  0  0  0  0  0
   -6.4349    5.3126  -19.1476 F   0  0  0  0  0  0  0  0  0  0  0  0
   -8.4764    4.6343  -19.4655 F   0  0  0  0  0  0  0  0  0  0  0  0
   -8.6547    7.5353  -17.1782 H   0  0  0  0  0  0  0  0  0  0  0  0
   -9.0329    7.4452  -14.7464 H   0  0  0  0  0  0  0  0  0  0  0  0
   -7.3088    3.4518  -17.1405 H   0  0  0  0  0  0  0  0  0  0  0  0
   -7.7219    7.2565  -12.7893 H   0  0  0  0  0  0  0  0  0  0  0  0
   -6.9147    5.8731  -12.0496 H   0  0  0  0  0  0  0  0  0  0  0  0
   -9.6183    3.5195  -13.1782 H   0  0  0  0  0  0  0  0  0  0  0  0
  -10.5790    4.8933  -12.6113 H   0  0  0  0  0  0  0  0  0  0  0  0
   -8.1447    7.2064  -10.3477 H   0  0  0  0  0  0  0  0  0  0  0  0
   -9.6527    7.0270  -11.2442 H   0  0  0  0  0  0  0  0  0  0  0  0
   -9.9657    3.4638  -10.7053 H   0  0  0  0  0  0  0  0  0  0  0  0
   -8.2537    3.5380  -11.1280 H   0  0  0  0  0  0  0  0  0  0  0  0
   -7.8664    5.3366   -6.6509 H   0  0  0  0  0  0  0  0  0  0  0  0
   -9.1836    4.4806   -5.8177 H   0  0  0  0  0  0  0  0  0  0  0  0
   -7.4985    3.9413   -5.6521 H   0  0  0  0  0  0  0  0  0  0  0  0
   -9.0311    1.4073   -8.0142 H   0  0  0  0  0  0  0  0  0  0  0  0
   -9.9048    2.1450   -6.6833 H   0  0  0  0  0  0  0  0  0  0  0  0
   -8.2380    1.5804   -6.4328 H   0  0  0  0  0  0  0  0  0  0  0  0
   -7.1942    2.6523   -9.2000 H   0  0  0  0  0  0  0  0  0  0  0  0
   -6.7121    4.2787   -8.6711 H   0  0  0  0  0  0  0  0  0  0  0  0
   -6.3097    2.8466   -7.6966 H   0  0  0  0  0  0  0  0  0  0  0  0
  1  5  1  0  0  0  0
  1 18  3  0  0  0  0
  2  3  1  0  0  0  0
  2  6  2  0  0  0  0
  3  7  2  0  0  0  0
  4  5  2  0  0  0  0
  4  6  1  0  0  0  0
  5  7  1  0  0  0  0
  6 16  1  0  0  0  0
  7 19  1  0  0  0  0
  8 20  1  0  0  0  0
  8 21  2  0  0  0  0
  8 22  1  0  0  0  0
  9 11  1  0  0  0  0
  9 19  1  0  0  0  0
 10 12  1  0  0  0  0
 10 19  1  0  0  0  0
 11 20  1  0  0  0  0
 12 20  1  0  0  0  0
 13 17  1  0  0  0  0
 14 17  1  0  0  0  0
 15 17  1  0  0  0  0
 16 23  1  0  0  0  0
 16 24  1  0  0  0  0
 16 25  1  0  0  0  0
 17 22  1  0  0  0  0
  2 26  1  0  0  0  0
  3 27  1  0  0  0  0
  4 28  1  0  0  0  0
  9 29  1  0  0  0  0
  9 30  1  0  0  0  0
 10 31  1  0  0  0  0
 10 32  1  0  0  0  0
 11 33  1  0  0  0  0
 11 34  1  0  0  0  0
 12 35  1  0  0  0  0
 12 36  1  0  0  0  0
 13 37  1  0  0  0  0
 13 38  1  0  0  0  0
 13 39  1  0  0  0  0
 14 40  1  0  0  0  0
 14 41  1  0  0  0  0
 14 42  1  0  0  0  0
 15 43  1  0  0  0  0
 15 44  1  0  0  0  0
 15 45  1  0  0  0  0
M  END
> <id>
EN300-337287

> <smiles>
CC(C)(C)OC(=O)N1CCN(CC1)C=2C=CC(=CC2C#N)C(F)(F)F

> <MDLNUMBER>
MFCD30498937

> <IUPAC Name>
tert-butyl 4-[2-cyano-4-(trifluoromethyl)phenyl]piperazine-1-carboxylate

> <CAS>
847971-82-8

> <URL>
https://www.enaminestore.com/catalog/EN300-337287

> <ROCS_ShapeQuery>
_x0404_0B

> <ROCS_TanimotoCombo>
0.434 

> <ROCS_ShapeTanimoto>
0.359 

> <ROCS_ColorTanimoto>
0.075 

> <ROCS_RefTversky>
0.320 

> <ROCS_RefColorTversky>
0.078 

> <ROCS_RefTverskyCombo>
0.398 

> <ROCS_FitTversky>
1.511 

> <ROCS_FitColorTversky>
0.660 

> <ROCS_FitTverskyCombo>
2.170 

> <ROCS_ColorScore>
-5.626

> <ROCS_Overlap>
2136.901

> <ROCS_Rank>
352                 

$$$$
untitled-dbase-102575_41
  -OEChem-08222312023D

 42 45  0     0  0  0  0  0  0999 V2000
   -7.0978    6.6129  -15.4087 C   0  0  0  0  0  0  0  0  0  0  0  0
   -6.8595    6.0345  -16.6555 C   0  0  0  0  0  0  0  0  0  0  0  0
   -9.4007    5.8910  -15.5096 C   0  0  0  0  0  0  0  0  0  0  0  0
   -8.3659    6.5390  -14.8356 C   0  0  0  0  0  0  0  0  0  0  0  0
   -7.8896    5.3735  -17.3357 C   0  0  0  0  0  0  0  0  0  0  0  0
   -9.1734    5.3177  -16.7665 C   0  0  0  0  0  0  0  0  0  0  0  0
   -9.1799    3.1111   -8.7542 C   0  0  0  0  0  0  0  0  0  0  0  0
   -8.6123    7.1429  -13.5203 C   0  0  0  0  0  0  0  0  0  0  0  0
  -10.2779    4.5857  -17.4813 C   0  0  0  0  0  0  0  0  0  0  0  0
   -7.6362    4.7766  -18.6961 C   0  0  0  0  0  0  0  0  0  0  0  0
  -10.1136    3.8559   -9.7245 C   0  0  0  0  0  0  0  0  0  0  0  0
   -8.4288    4.0489  -11.7253 C   0  0  0  0  0  0  0  0  0  0  0  0
   -8.6063    5.9734  -10.0795 C   0  0  0  0  0  0  0  0  0  0  0  0
   -9.2208    4.8784  -12.7360 C   0  0  0  0  0  0  0  0  0  0  0  0
   -9.3994    6.7552  -11.1260 C   0  0  0  0  0  0  0  0  0  0  0  0
   -9.9595    4.4286  -18.9633 C   0  0  0  0  0  0  0  0  0  0  0  0
   -8.8099    4.4772  -10.3097 C   0  0  0  0  0  0  0  0  0  0  0  0
   -8.0847    3.6914   -9.3128 N   0  0  0  0  0  0  0  0  0  0  0  0
   -9.0435    6.3114  -12.4835 N   0  0  0  0  0  0  0  0  0  0  0  0
   -9.3106    2.3217   -7.8472 O   0  0  0  0  0  0  0  0  0  0  0  0
   -8.4260    8.3559  -13.4367 O   0  0  0  0  0  0  0  0  0  0  0  0
   -8.6576    3.8601  -19.1048 O   0  0  0  0  0  0  0  0  0  0  0  0
   -6.2853    7.1188  -14.8929 H   0  0  0  0  0  0  0  0  0  0  0  0
   -5.8670    6.1017  -17.0936 H   0  0  0  0  0  0  0  0  0  0  0  0
  -10.3891    5.8298  -15.0596 H   0  0  0  0  0  0  0  0  0  0  0  0
  -10.3727    3.5951  -17.0202 H   0  0  0  0  0  0  0  0  0  0  0  0
  -11.2305    5.1142  -17.3658 H   0  0  0  0  0  0  0  0  0  0  0  0
   -7.5597    5.5745  -19.4441 H   0  0  0  0  0  0  0  0  0  0  0  0
   -6.6933    4.2198  -18.6895 H   0  0  0  0  0  0  0  0  0  0  0  0
  -10.6734    3.1917  -10.3887 H   0  0  0  0  0  0  0  0  0  0  0  0
  -10.7983    4.5481   -9.2270 H   0  0  0  0  0  0  0  0  0  0  0  0
   -8.6303    2.9832  -11.8875 H   0  0  0  0  0  0  0  0  0  0  0  0
   -7.3549    4.2010  -11.8940 H   0  0  0  0  0  0  0  0  0  0  0  0
   -7.5428    6.2324  -10.1612 H   0  0  0  0  0  0  0  0  0  0  0  0
   -8.9320    6.2701   -9.0752 H   0  0  0  0  0  0  0  0  0  0  0  0
   -8.9089    4.6226  -13.7536 H   0  0  0  0  0  0  0  0  0  0  0  0
  -10.2935    4.6668  -12.6552 H   0  0  0  0  0  0  0  0  0  0  0  0
  -10.4751    6.5801  -11.0055 H   0  0  0  0  0  0  0  0  0  0  0  0
   -9.2259    7.8256  -10.9923 H   0  0  0  0  0  0  0  0  0  0  0  0
  -10.6801    3.7502  -19.4307 H   0  0  0  0  0  0  0  0  0  0  0  0
  -10.0069    5.3857  -19.4974 H   0  0  0  0  0  0  0  0  0  0  0  0
   -7.1050    3.5880   -9.0861 H   0  0  0  0  0  0  0  0  0  0  0  0
  1  2  1  0  0  0  0
  1  4  2  0  0  0  0
  2  5  2  0  0  0  0
  3  4  1  0  0  0  0
  3  6  2  0  0  0  0
  4  8  1  0  0  0  0
  5  6  1  0  0  0  0
  5 10  1  0  0  0  0
  6  9  1  0  0  0  0
  7 11  1  0  0  0  0
  7 18  1  0  0  0  0
  7 20  2  0  0  0  0
  8 19  1  0  0  0  0
  8 21  2  0  0  0  0
  9 16  1  0  0  0  0
 10 22  1  0  0  0  0
 11 17  1  0  0  0  0
 12 14  1  0  0  0  0
 12 17  1  0  0  0  0
 13 15  1  0  0  0  0
 13 17  1  0  0  0  0
 14 19  1  0  0  0  0
 15 19  1  0  0  0  0
 16 22  1  0  0  0  0
 17 18  1  0  0  0  0
  1 23  1  0  0  0  0
  2 24  1  0  0  0  0
  3 25  1  0  0  0  0
  9 26  1  0  0  0  0
  9 27  1  0  0  0  0
 10 28  1  0  0  0  0
 10 29  1  0  0  0  0
 11 30  1  0  0  0  0
 11 31  1  0  0  0  0
 12 32  1  0  0  0  0
 12 33  1  0  0  0  0
 13 34  1  0  0  0  0
 13 35  1  0  0  0  0
 14 36  1  0  0  0  0
 14 37  1  0  0  0  0
 15 38  1  0  0  0  0
 15 39  1  0  0  0  0
 16 40  1  0  0  0  0
 16 41  1  0  0  0  0
 18 42  1  0  0  0  0
M  END
> <id>
EN300-26603674

> <smiles>
O=C(N1CCC2(CC(=O)N2)CC1)C=3C=CC=4COCCC4C3

> <IUPAC Name>
7-(3,4-dihydro-1H-2-benzopyran-6-carbonyl)-1,7-diazaspiro[3.5]nonan-2-one

> <CAS>
2305495-32-1

> <URL>
https://www.enaminestore.com/catalog/EN300-26603674

> <ROCS_ShapeQuery>
_x0404_0B

> <ROCS_TanimotoCombo>
0.434 

> <ROCS_ShapeTanimoto>
0.368 

> <ROCS_ColorTanimoto>
0.065 

> <ROCS_RefTversky>
0.322 

> <ROCS_RefColorTversky>
0.071 

> <ROCS_RefTverskyCombo>
0.393 

> <ROCS_FitTversky>
1.649 

> <ROCS_FitColorTversky>
0.451 

> <ROCS_FitTverskyCombo>
2.100 

> <ROCS_ColorScore>
-5.134

> <ROCS_Overlap>
2146.717

> <ROCS_Rank>
353                 

$$$$
untitled-dbase-120209_3211
  -OEChem-08222312023D

 53 54  0     1  0  0  0  0  0999 V2000
   -9.9284    7.7864  -13.6148 C   0  0  0  0  0  0  0  0  0  0  0  0
   -7.6990    4.9728  -16.0341 C   0  0  0  0  0  0  0  0  0  0  0  0
   -9.2297    5.2381   -9.2864 C   0  0  0  0  0  0  0  0  0  0  0  0
   -9.7094    5.5715  -14.6926 C   0  0  0  0  0  0  0  0  0  0  0  0
   -7.5239    5.7143  -13.6301 C   0  0  0  0  0  0  0  0  0  0  0  0
   -8.2785    6.5852  -11.2735 C   0  0  0  0  0  0  0  0  0  0  0  0
   -8.8688    4.5761  -11.7387 C   0  0  0  0  0  0  0  0  0  0  0  0
   -9.8804    6.3081  -13.3698 C   0  0  1  0  0  0  0  0  0  0  0  0
   -8.6353    5.8553  -12.5937 C   0  0  0  0  0  0  0  0  0  0  0  0
   -7.4023    2.9881  -18.0697 C   0  0  0  0  0  0  0  0  0  0  0  0
   -9.3401    4.1199  -19.1979 C   0  0  0  0  0  0  0  0  0  0  0  0
   -7.1998    5.3803  -18.8253 C   0  0  0  0  0  0  0  0  0  0  0  0
   -8.4187    4.0477   -7.1019 C   0  0  0  0  0  0  0  0  0  0  0  0
  -10.0567    2.1983   -7.5556 C   0  0  0  0  0  0  0  0  0  0  0  0
   -7.9559    2.3713   -8.9212 C   0  0  0  0  0  0  0  0  0  0  0  0
   -8.1404    4.3105  -18.2724 C   0  0  0  0  0  0  0  0  0  0  0  0
   -9.0366    3.1516   -8.1743 C   0  0  0  0  0  0  0  0  0  0  0  0
   -8.2701    5.3948  -14.8426 N   0  0  0  0  0  0  0  0  0  0  0  0
   -8.8544    5.4494  -10.5837 N   0  0  0  0  0  0  0  0  0  0  0  0
   -8.9542    8.5231  -13.6550 O   0  0  0  0  0  0  0  0  0  0  0  0
   -6.4923    4.8114  -16.2022 O   0  0  0  0  0  0  0  0  0  0  0  0
   -9.1274    6.0742   -8.3931 O   0  0  0  0  0  0  0  0  0  0  0  0
  -11.2072    8.2023  -13.7848 O   0  0  0  0  0  0  0  0  0  0  0  0
   -8.6392    4.7528  -17.0051 O   0  0  0  0  0  0  0  0  0  0  0  0
   -9.7330    3.9785   -9.1131 O   0  0  0  0  0  0  0  0  0  0  0  0
  -10.1504    4.5694  -14.6463 H   0  0  0  0  0  0  0  0  0  0  0  0
  -10.1224    6.0940  -15.5612 H   0  0  0  0  0  0  0  0  0  0  0  0
   -6.9998    6.6612  -13.8053 H   0  0  0  0  0  0  0  0  0  0  0  0
   -6.7898    4.9329  -13.4065 H   0  0  0  0  0  0  0  0  0  0  0  0
   -7.2120    6.7283  -11.0800 H   0  0  0  0  0  0  0  0  0  0  0  0
   -8.8256    7.5115  -11.0724 H   0  0  0  0  0  0  0  0  0  0  0  0
   -9.8351    4.0765  -11.8641 H   0  0  0  0  0  0  0  0  0  0  0  0
   -8.0656    3.8336  -11.7487 H   0  0  0  0  0  0  0  0  0  0  0  0
  -10.8120    6.0276  -12.8703 H   0  0  0  0  0  0  0  0  0  0  0  0
   -6.5404    3.1206  -17.4059 H   0  0  0  0  0  0  0  0  0  0  0  0
   -8.0569    2.2223  -17.6409 H   0  0  0  0  0  0  0  0  0  0  0  0
   -7.0058    2.6119  -19.0197 H   0  0  0  0  0  0  0  0  0  0  0  0
   -9.8727    5.0663  -19.3462 H   0  0  0  0  0  0  0  0  0  0  0  0
  -10.0643    3.4236  -18.7599 H   0  0  0  0  0  0  0  0  0  0  0  0
   -9.0377    3.7351  -20.1773 H   0  0  0  0  0  0  0  0  0  0  0  0
   -7.7290    6.3290  -18.9708 H   0  0  0  0  0  0  0  0  0  0  0  0
   -6.3518    5.5568  -18.1557 H   0  0  0  0  0  0  0  0  0  0  0  0
   -6.8125    5.0883  -19.8081 H   0  0  0  0  0  0  0  0  0  0  0  0
   -7.6859    4.7335   -7.5419 H   0  0  0  0  0  0  0  0  0  0  0  0
   -9.1799    4.6388   -6.5824 H   0  0  0  0  0  0  0  0  0  0  0  0
   -7.8768    3.4515   -6.3588 H   0  0  0  0  0  0  0  0  0  0  0  0
  -10.5026    1.5535   -8.3215 H   0  0  0  0  0  0  0  0  0  0  0  0
  -10.8843    2.7542   -7.1001 H   0  0  0  0  0  0  0  0  0  0  0  0
   -9.6024    1.5626   -6.7887 H   0  0  0  0  0  0  0  0  0  0  0  0
   -8.3989    1.7284   -9.6905 H   0  0  0  0  0  0  0  0  0  0  0  0
   -7.2354    3.0403   -9.4028 H   0  0  0  0  0  0  0  0  0  0  0  0
   -7.4127    1.7075   -8.2389 H   0  0  0  0  0  0  0  0  0  0  0  0
  -11.2601    9.1687  -13.9448 H   0  0  0  0  0  0  0  0  0  0  0  0
  1  8  1  0  0  0  0
  1 20  2  0  0  0  0
  1 23  1  0  0  0  0
  2 18  1  0  0  0  0
  2 21  2  0  0  0  0
  2 24  1  0  0  0  0
  3 19  1  0  0  0  0
  3 22  2  0  0  0  0
  3 25  1  0  0  0  0
  4  8  1  0  0  0  0
  4 18  1  0  0  0  0
  5  9  1  0  0  0  0
  5 18  1  0  0  0  0
  6  9  1  0  0  0  0
  6 19  1  0  0  0  0
  7  9  1  0  0  0  0
  7 19  1  0  0  0  0
  8  9  1  0  0  0  0
 10 16  1  0  0  0  0
 11 16  1  0  0  0  0
 12 16  1  0  0  0  0
 13 17  1  0  0  0  0
 14 17  1  0  0  0  0
 15 17  1  0  0  0  0
 16 24  1  0  0  0  0
 17 25  1  0  0  0  0
  4 26  1  0  0  0  0
  4 27  1  0  0  0  0
  5 28  1  0  0  0  0
  5 29  1  0  0  0  0
  6 30  1  0  0  0  0
  6 31  1  0  0  0  0
  7 32  1  0  0  0  0
  7 33  1  0  0  0  0
  8 34  1  0  0  0  0
 10 35  1  0  0  0  0
 10 36  1  0  0  0  0
 10 37  1  0  0  0  0
 11 38  1  0  0  0  0
 11 39  1  0  0  0  0
 11 40  1  0  0  0  0
 12 41  1  0  0  0  0
 12 42  1  0  0  0  0
 12 43  1  0  0  0  0
 13 44  1  0  0  0  0
 13 45  1  0  0  0  0
 13 46  1  0  0  0  0
 14 47  1  0  0  0  0
 14 48  1  0  0  0  0
 14 49  1  0  0  0  0
 15 50  1  0  0  0  0
 15 51  1  0  0  0  0
 15 52  1  0  0  0  0
 23 53  1  0  0  0  0
M  END
> <id>
EN300-1455697

> <smiles>
CC(C)(C)OC(=O)N1CC2(C1)CN(CC2C(=O)O)C(=O)OC(C)(C)C

> <IUPAC Name>
2,6-bis[(tert-butoxy)carbonyl]-2,6-diazaspiro[3.4]octane-8-carboxylic acid

> <CAS>
2172510-15-3

> <URL>
https://www.enaminestore.com/catalog/EN300-1455697

> <ROCS_ShapeQuery>
_x0404_0B

> <ROCS_TanimotoCombo>
0.434 

> <ROCS_ShapeTanimoto>
0.378 

> <ROCS_ColorTanimoto>
0.056 

> <ROCS_RefTversky>
0.332 

> <ROCS_RefColorTversky>
0.062 

> <ROCS_RefTverskyCombo>
0.394 

> <ROCS_FitTversky>
1.574 

> <ROCS_FitColorTversky>
0.362 

> <ROCS_FitTverskyCombo>
1.936 

> <ROCS_ColorScore>
-4.474

> <ROCS_Overlap>
2218.037

> <ROCS_Rank>
354                 

$$$$
untitled-dbase-173030_1424
  -OEChem-08222312023D

 47 48  0     1  0  0  0  0  0999 V2000
   -8.9299    5.3266  -11.4320 C   0  0  0  0  0  0  0  0  0  0  0  0
   -9.0429    6.4739  -14.9563 C   0  0  0  0  0  0  0  0  0  0  0  0
   -9.9464    5.2726  -16.9691 C   0  0  0  0  0  0  0  0  0  0  0  0
   -7.5164    4.9604  -16.3511 C   0  0  0  0  0  0  0  0  0  0  0  0
   -9.3578    3.9878  -14.8645 C   0  0  0  0  0  0  0  0  0  0  0  0
   -8.3119    6.4170  -13.6178 C   0  0  0  0  0  0  0  0  0  0  0  0
   -9.4982    4.4190  -18.1478 C   0  0  0  0  0  0  0  0  0  0  0  0
   -7.3872    5.5088  -17.7679 C   0  0  0  0  0  0  0  0  0  0  0  0
   -8.6931    3.9432  -13.4782 C   0  0  1  0  0  0  0  0  0  0  0  0
   -8.9460    5.1695  -15.7809 C   0  0  0  0  0  0  0  0  0  0  0  0
   -9.5574    4.9835   -8.6604 C   0  0  0  0  0  0  0  0  0  0  0  0
   -9.4254    2.5188   -9.1261 C   0  0  0  0  0  0  0  0  0  0  0  0
   -7.3916    3.9603   -9.4331 C   0  0  0  0  0  0  0  0  0  0  0  0
   -7.2841    3.3477  -13.4818 C   0  0  0  0  0  0  0  0  0  0  0  0
   -8.9156    3.9013   -9.5273 C   0  0  0  0  0  0  0  0  0  0  0  0
   -8.7097    5.2560  -12.8163 N   0  0  0  0  0  0  0  0  0  0  0  0
   -8.8129    6.3529  -10.7643 O   0  0  0  0  0  0  0  0  0  0  0  0
   -8.2482    4.8430  -18.6901 O   0  0  0  0  0  0  0  0  0  0  0  0
   -7.3630    2.0171  -13.9555 O   0  0  0  0  0  0  0  0  0  0  0  0
   -9.2971    4.1232  -10.8899 O   0  0  0  0  0  0  0  0  0  0  0  0
  -10.1022    6.7025  -14.7559 H   0  0  0  0  0  0  0  0  0  0  0  0
   -8.6613    7.3331  -15.5247 H   0  0  0  0  0  0  0  0  0  0  0  0
  -10.0696    6.3077  -17.2865 H   0  0  0  0  0  0  0  0  0  0  0  0
  -10.9202    4.9070  -16.6356 H   0  0  0  0  0  0  0  0  0  0  0  0
   -7.3099    3.8876  -16.3825 H   0  0  0  0  0  0  0  0  0  0  0  0
   -6.7566    5.4258  -15.7306 H   0  0  0  0  0  0  0  0  0  0  0  0
   -9.2047    3.0362  -15.3817 H   0  0  0  0  0  0  0  0  0  0  0  0
  -10.4383    4.0622  -14.6901 H   0  0  0  0  0  0  0  0  0  0  0  0
   -7.2275    6.3636  -13.7577 H   0  0  0  0  0  0  0  0  0  0  0  0
   -8.5088    7.3405  -13.0632 H   0  0  0  0  0  0  0  0  0  0  0  0
   -9.3733    3.3732  -17.8188 H   0  0  0  0  0  0  0  0  0  0  0  0
  -10.2565    4.3960  -18.9515 H   0  0  0  0  0  0  0  0  0  0  0  0
   -7.5802    6.5923  -17.8077 H   0  0  0  0  0  0  0  0  0  0  0  0
   -6.3558    5.3666  -18.1237 H   0  0  0  0  0  0  0  0  0  0  0  0
   -9.3020    3.2555  -12.8813 H   0  0  0  0  0  0  0  0  0  0  0  0
   -9.1941    5.9774   -8.9453 H   0  0  0  0  0  0  0  0  0  0  0  0
  -10.6489    4.9745   -8.7462 H   0  0  0  0  0  0  0  0  0  0  0  0
   -9.2921    4.8480   -7.6056 H   0  0  0  0  0  0  0  0  0  0  0  0
   -8.9674    1.7392   -9.7456 H   0  0  0  0  0  0  0  0  0  0  0  0
  -10.5074    2.4413   -9.2823 H   0  0  0  0  0  0  0  0  0  0  0  0
   -9.2100    2.2980   -8.0757 H   0  0  0  0  0  0  0  0  0  0  0  0
   -6.9310    3.1841  -10.0549 H   0  0  0  0  0  0  0  0  0  0  0  0
   -7.0052    4.9336   -9.7525 H   0  0  0  0  0  0  0  0  0  0  0  0
   -7.0572    3.7728   -8.4063 H   0  0  0  0  0  0  0  0  0  0  0  0
   -6.8813    3.3498  -12.4705 H   0  0  0  0  0  0  0  0  0  0  0  0
   -6.6403    3.9296  -14.1391 H   0  0  0  0  0  0  0  0  0  0  0  0
   -6.4594    1.6568  -13.9503 H   0  0  0  0  0  0  0  0  0  0  0  0
  1 16  1  0  0  0  0
  1 17  2  0  0  0  0
  1 20  1  0  0  0  0
  2  6  1  0  0  0  0
  2 10  1  0  0  0  0
  3  7  1  0  0  0  0
  3 10  1  0  0  0  0
  4  8  1  0  0  0  0
  4 10  1  0  0  0  0
  5  9  1  0  0  0  0
  5 10  1  0  0  0  0
  6 16  1  0  0  0  0
  7 18  1  0  0  0  0
  8 18  1  0  0  0  0
  9 14  1  0  0  0  0
  9 16  1  0  0  0  0
 11 15  1  0  0  0  0
 12 15  1  0  0  0  0
 13 15  1  0  0  0  0
 14 19  1  0  0  0  0
 15 20  1  0  0  0  0
  2 21  1  0  0  0  0
  2 22  1  0  0  0  0
  3 23  1  0  0  0  0
  3 24  1  0  0  0  0
  4 25  1  0  0  0  0
  4 26  1  0  0  0  0
  5 27  1  0  0  0  0
  5 28  1  0  0  0  0
  6 29  1  0  0  0  0
  6 30  1  0  0  0  0
  7 31  1  0  0  0  0
  7 32  1  0  0  0  0
  8 33  1  0  0  0  0
  8 34  1  0  0  0  0
  9 35  1  0  0  0  0
 11 36  1  0  0  0  0
 11 37  1  0  0  0  0
 11 38  1  0  0  0  0
 12 39  1  0  0  0  0
 12 40  1  0  0  0  0
 12 41  1  0  0  0  0
 13 42  1  0  0  0  0
 13 43  1  0  0  0  0
 13 44  1  0  0  0  0
 14 45  1  0  0  0  0
 14 46  1  0  0  0  0
 19 47  1  0  0  0  0
M  END
> <id>
EN300-37136949

> <smiles>
CC(C)(C)OC(=O)N1CCC2(CCOCC2)CC1CO

> <IUPAC Name>
tert-butyl 8-(hydroxymethyl)-3-oxa-9-azaspiro[5.5]undecane-9-carboxylate

> <CAS>
2761524-95-0

> <Purity>
95

> <URL>
https://www.enaminestore.com/catalog/EN300-37136949

> <ROCS_ShapeQuery>
_x0404_0B

> <ROCS_TanimotoCombo>
0.434 

> <ROCS_ShapeTanimoto>
0.334 

> <ROCS_ColorTanimoto>
0.100 

> <ROCS_RefTversky>
0.294 

> <ROCS_RefColorTversky>
0.104 

> <ROCS_RefTverskyCombo>
0.398 

> <ROCS_FitTversky>
1.674 

> <ROCS_FitColorTversky>
0.720 

> <ROCS_FitTverskyCombo>
2.395 

> <ROCS_ColorScore>
-7.511

> <ROCS_Overlap>
1960.615

> <ROCS_Rank>
355                 

$$$$
untitled-dbase-92200_931
  -OEChem-08222312023D

 46 48  0     1  0  0  0  0  0999 V2000
   -9.9532    4.7964  -16.9551 C   0  0  0  0  0  0  0  0  0  0  0  0
   -9.7629    4.1839  -18.1833 C   0  0  0  0  0  0  0  0  0  0  0  0
   -7.4829    4.4358  -18.0563 C   0  0  0  0  0  0  0  0  0  0  0  0
   -8.8288    5.2401  -16.2680 C   0  0  0  0  0  0  0  0  0  0  0  0
   -7.5663    5.0603  -16.8222 C   0  0  0  0  0  0  0  0  0  0  0  0
   -9.1796    5.2454   -9.0994 C   0  0  0  0  0  0  0  0  0  0  0  0
  -10.4814    6.0373  -14.4442 C   0  0  0  0  0  0  0  0  0  0  0  0
  -10.3658    6.3829  -12.9630 C   0  0  0  0  0  0  0  0  0  0  0  0
   -8.3542    5.1659  -13.7457 C   0  0  0  0  0  0  0  0  0  0  0  0
   -8.3432    6.2301  -11.3368 C   0  0  0  0  0  0  0  0  0  0  0  0
   -9.4624    4.4147  -11.5113 C   0  0  0  0  0  0  0  0  0  0  0  0
   -9.0255    5.9125  -14.9218 C   0  0  1  0  0  0  0  0  0  0  0  0
   -9.1487    5.5776  -12.4931 C   0  0  0  0  0  0  0  0  0  0  0  0
   -7.8548    3.7321   -7.5750 C   0  0  0  0  0  0  0  0  0  0  0  0
  -10.0824    3.1482   -6.5720 C   0  0  0  0  0  0  0  0  0  0  0  0
   -9.2264    1.8616   -8.5520 C   0  0  0  0  0  0  0  0  0  0  0  0
   -9.2671    3.2239   -7.8611 C   0  0  0  0  0  0  0  0  0  0  0  0
   -8.5524    3.9915  -18.7536 N   0  0  0  0  0  0  0  0  0  0  0  0
   -9.0231    5.3030  -10.4558 N   0  0  0  0  0  0  0  0  0  0  0  0
   -8.7140    6.0675   -8.3152 O   0  0  0  0  0  0  0  0  0  0  0  0
   -8.4558    7.2197  -15.0488 O   0  0  0  0  0  0  0  0  0  0  0  0
   -9.9195    4.1564   -8.7300 O   0  0  0  0  0  0  0  0  0  0  0  0
   -5.9868    5.6321  -15.9577 Br  0  0  0  0  0  0  0  0  0  0  0  0
  -10.9521    4.9211  -16.5510 H   0  0  0  0  0  0  0  0  0  0  0  0
  -10.6075    3.8201  -18.7592 H   0  0  0  0  0  0  0  0  0  0  0  0
   -6.5284    4.2641  -18.5449 H   0  0  0  0  0  0  0  0  0  0  0  0
  -11.0145    5.0846  -14.5587 H   0  0  0  0  0  0  0  0  0  0  0  0
  -11.0384    6.8108  -14.9835 H   0  0  0  0  0  0  0  0  0  0  0  0
  -10.1874    7.4592  -12.8526 H   0  0  0  0  0  0  0  0  0  0  0  0
  -11.2841    6.1411  -12.4186 H   0  0  0  0  0  0  0  0  0  0  0  0
   -8.4266    4.0806  -13.8915 H   0  0  0  0  0  0  0  0  0  0  0  0
   -7.2935    5.4265  -13.6589 H   0  0  0  0  0  0  0  0  0  0  0  0
   -7.2611    6.0686  -11.3497 H   0  0  0  0  0  0  0  0  0  0  0  0
   -8.5606    7.2814  -11.1313 H   0  0  0  0  0  0  0  0  0  0  0  0
  -10.5107    4.1151  -11.4357 H   0  0  0  0  0  0  0  0  0  0  0  0
   -8.8264    3.5275  -11.5905 H   0  0  0  0  0  0  0  0  0  0  0  0
   -7.2663    3.7879   -8.4978 H   0  0  0  0  0  0  0  0  0  0  0  0
   -7.8691    4.7238   -7.1113 H   0  0  0  0  0  0  0  0  0  0  0  0
   -7.3199    3.0460   -6.9084 H   0  0  0  0  0  0  0  0  0  0  0  0
  -11.0964    2.7840   -6.7725 H   0  0  0  0  0  0  0  0  0  0  0  0
  -10.1944    4.1413   -6.1221 H   0  0  0  0  0  0  0  0  0  0  0  0
   -9.6150    2.4852   -5.8367 H   0  0  0  0  0  0  0  0  0  0  0  0
  -10.2394    1.4969   -8.7573 H   0  0  0  0  0  0  0  0  0  0  0  0
   -8.6766    1.9053   -9.4977 H   0  0  0  0  0  0  0  0  0  0  0  0
   -8.7525    1.1121   -7.9079 H   0  0  0  0  0  0  0  0  0  0  0  0
   -8.5750    7.6620  -14.1926 H   0  0  0  0  0  0  0  0  0  0  0  0
  1  2  1  0  0  0  0
  1  4  2  0  0  0  0
  2 18  2  0  0  0  0
  3  5  2  0  0  0  0
  3 18  1  0  0  0  0
  4  5  1  0  0  0  0
  4 12  1  0  0  0  0
  5 23  1  0  0  0  0
  6 19  1  0  0  0  0
  6 20  2  0  0  0  0
  6 22  1  0  0  0  0
  7  8  1  0  0  0  0
  7 12  1  0  0  0  0
  8 13  1  0  0  0  0
  9 12  1  0  0  0  0
  9 13  1  0  0  0  0
 10 13  1  0  0  0  0
 10 19  1  0  0  0  0
 11 13  1  0  0  0  0
 11 19  1  0  0  0  0
 12 21  1  0  0  0  0
 14 17  1  0  0  0  0
 15 17  1  0  0  0  0
 16 17  1  0  0  0  0
 17 22  1  0  0  0  0
  1 24  1  0  0  0  0
  2 25  1  0  0  0  0
  3 26  1  0  0  0  0
  7 27  1  0  0  0  0
  7 28  1  0  0  0  0
  8 29  1  0  0  0  0
  8 30  1  0  0  0  0
  9 31  1  0  0  0  0
  9 32  1  0  0  0  0
 10 33  1  0  0  0  0
 10 34  1  0  0  0  0
 11 35  1  0  0  0  0
 11 36  1  0  0  0  0
 14 37  1  0  0  0  0
 14 38  1  0  0  0  0
 14 39  1  0  0  0  0
 15 40  1  0  0  0  0
 15 41  1  0  0  0  0
 15 42  1  0  0  0  0
 16 43  1  0  0  0  0
 16 44  1  0  0  0  0
 16 45  1  0  0  0  0
 21 46  1  0  0  0  0
M  END
> <id>
EN300-7429038

> <smiles>
CC(C)(C)OC(=O)N1CC2(C1)CCC(O)(C2)C=3C=CN=CC3Br

> <IUPAC Name>
tert-butyl 6-(3-bromopyridin-4-yl)-6-hydroxy-2-azaspiro[3.4]octane-2-carboxylate

> <CAS>
2309464-03-5

> <URL>
https://www.enaminestore.com/catalog/EN300-7429038

> <ROCS_ShapeQuery>
_x0404_0B

> <ROCS_TanimotoCombo>
0.433 

> <ROCS_ShapeTanimoto>
0.369 

> <ROCS_ColorTanimoto>
0.065 

> <ROCS_RefTversky>
0.323 

> <ROCS_RefColorTversky>
0.071 

> <ROCS_RefTverskyCombo>
0.394 

> <ROCS_FitTversky>
1.633 

> <ROCS_FitColorTversky>
0.416 

> <ROCS_FitTverskyCombo>
2.048 

> <ROCS_ColorScore>
-5.129

> <ROCS_Overlap>
2155.100

> <ROCS_Rank>
356                 

$$$$
untitled-dbase-148671_8
  -OEChem-08222312023D

 32 33  0     0  0  0  0  0  0999 V2000
   -8.8358    5.8642   -9.9165 C   0  0  0  0  0  0  0  0  0  0  0  0
   -9.0982    3.8824   -9.0378 C   0  0  0  0  0  0  0  0  0  0  0  0
   -8.6685    6.7739  -10.9935 C   0  0  0  0  0  0  0  0  0  0  0  0
   -8.6287    6.3043  -12.2562 C   0  0  0  0  0  0  0  0  0  0  0  0
   -8.9114    4.0257  -11.5312 C   0  0  0  0  0  0  0  0  0  0  0  0
   -8.7531    4.8744  -12.5685 C   0  0  0  0  0  0  0  0  0  0  0  0
   -8.5431    5.3135  -14.9431 C   0  0  0  0  0  0  0  0  0  0  0  0
   -7.0409    6.0837  -17.2460 C   0  0  0  0  0  0  0  0  0  0  0  0
   -8.3878    4.3554  -18.4740 C   0  0  0  0  0  0  0  0  0  0  0  0
   -9.5395    6.3265  -17.4269 C   0  0  0  0  0  0  0  0  0  0  0  0
   -8.3759    5.3431  -17.3093 C   0  0  0  0  0  0  0  0  0  0  0  0
   -8.9114    6.0104   -8.6110 N   0  0  0  0  0  0  0  0  0  0  0  0
   -9.0772    4.7568   -8.0566 N   0  0  0  0  0  0  0  0  0  0  0  0
   -8.9504    4.5227  -10.2350 N   0  0  0  0  0  0  0  0  0  0  0  0
   -8.7048    4.4637  -13.8656 N   0  0  0  0  0  0  0  0  0  0  0  0
   -8.4227    6.5334  -14.8866 O   0  0  0  0  0  0  0  0  0  0  0  0
   -9.2385    2.5748   -8.9026 O   0  0  0  0  0  0  0  0  0  0  0  0
   -8.5364    4.5890  -16.1025 O   0  0  0  0  0  0  0  0  0  0  0  0
   -8.5746    7.8345  -10.7897 H   0  0  0  0  0  0  0  0  0  0  0  0
   -8.5018    6.9956  -13.0842 H   0  0  0  0  0  0  0  0  0  0  0  0
   -9.0104    2.9535  -11.6592 H   0  0  0  0  0  0  0  0  0  0  0  0
   -7.0283    6.7936  -16.4112 H   0  0  0  0  0  0  0  0  0  0  0  0
   -6.2009    5.3916  -17.1265 H   0  0  0  0  0  0  0  0  0  0  0  0
   -6.8771    6.6730  -18.1555 H   0  0  0  0  0  0  0  0  0  0  0  0
   -9.3438    3.8218  -18.5233 H   0  0  0  0  0  0  0  0  0  0  0  0
   -7.6136    3.5904  -18.3449 H   0  0  0  0  0  0  0  0  0  0  0  0
   -8.2218    4.8585  -19.4321 H   0  0  0  0  0  0  0  0  0  0  0  0
  -10.4972    5.7956  -17.4724 H   0  0  0  0  0  0  0  0  0  0  0  0
   -9.5686    7.0199  -16.5801 H   0  0  0  0  0  0  0  0  0  0  0  0
   -9.4649    6.9095  -18.3520 H   0  0  0  0  0  0  0  0  0  0  0  0
   -8.7934    3.4686  -14.0533 H   0  0  0  0  0  0  0  0  0  0  0  0
   -9.3298    2.3024   -7.9607 H   0  0  0  0  0  0  0  0  0  0  0  0
  1  3  1  0  0  0  0
  1 12  2  0  0  0  0
  1 14  1  0  0  0  0
  2 13  2  0  0  0  0
  2 14  1  0  0  0  0
  2 17  1  0  0  0  0
  3  4  2  0  0  0  0
  4  6  1  0  0  0  0
  5  6  2  0  0  0  0
  5 14  1  0  0  0  0
  6 15  1  0  0  0  0
  7 15  1  0  0  0  0
  7 16  2  0  0  0  0
  7 18  1  0  0  0  0
  8 11  1  0  0  0  0
  9 11  1  0  0  0  0
 10 11  1  0  0  0  0
 11 18  1  0  0  0  0
 12 13  1  0  0  0  0
  3 19  1  0  0  0  0
  4 20  1  0  0  0  0
  5 21  1  0  0  0  0
  8 22  1  0  0  0  0
  8 23  1  0  0  0  0
  8 24  1  0  0  0  0
  9 25  1  0  0  0  0
  9 26  1  0  0  0  0
  9 27  1  0  0  0  0
 10 28  1  0  0  0  0
 10 29  1  0  0  0  0
 10 30  1  0  0  0  0
 15 31  1  0  0  0  0
 17 32  1  0  0  0  0
M  END
> <id>
EN300-27783952

> <smiles>
CC(C)(C)OC(=O)NC=1C=CC2=NN=C(O)N2C1

> <IUPAC Name>
tert-butyl N-{3-hydroxy-[1,2,4]triazolo[4,3-a]pyridin-6-yl}carbamate

> <CAS>
2639417-10-8

> <URL>
https://www.enaminestore.com/catalog/EN300-27783952

> <ROCS_ShapeQuery>
_x0404_0B

> <ROCS_TanimotoCombo>
0.433 

> <ROCS_ShapeTanimoto>
0.331 

> <ROCS_ColorTanimoto>
0.102 

> <ROCS_RefTversky>
0.291 

> <ROCS_RefColorTversky>
0.109 

> <ROCS_RefTverskyCombo>
0.400 

> <ROCS_FitTversky>
1.704 

> <ROCS_FitColorTversky>
0.624 

> <ROCS_FitTverskyCombo>
2.328 

> <ROCS_ColorScore>
-7.888

> <ROCS_Overlap>
1941.225

> <ROCS_Rank>
357                 

$$$$
untitled-dbase-134886_62
  -OEChem-08222312023D

 40 43  0     1  0  0  0  0  0999 V2000
   -9.0057    4.0126  -12.1049 C   0  0  0  0  0  0  0  0  0  0  0  0
   -9.0703    3.7647  -10.7397 C   0  0  0  0  0  0  0  0  0  0  0  0
   -8.9389    4.8490   -9.8767 C   0  0  0  0  0  0  0  0  0  0  0  0
   -8.7928    5.3109  -12.5213 C   0  0  0  0  0  0  0  0  0  0  0  0
   -9.3448    2.3811  -10.2139 C   0  0  0  0  0  0  0  0  0  0  0  0
   -8.9696    4.6405   -8.3875 C   0  0  0  0  0  0  0  0  0  0  0  0
   -9.6009    3.3010   -8.0027 C   0  0  0  0  0  0  0  0  0  0  0  0
   -7.5419    6.1195  -14.5270 C   0  0  0  0  0  0  0  0  0  0  0  0
   -9.8874    5.5450  -14.7547 C   0  0  0  0  0  0  0  0  0  0  0  0
   -7.1410    5.0823  -16.8427 C   0  0  0  0  0  0  0  0  0  0  0  0
   -9.3884    4.5877  -17.0863 C   0  0  0  0  0  0  0  0  0  0  0  0
   -7.8660    6.1446  -16.0169 C   0  0  1  0  0  0  0  0  0  0  0  0
   -9.3511    5.8042  -16.1598 C   0  0  2  0  0  0  0  0  0  0  0  0
   -8.1913    5.4968  -18.9942 C   0  0  0  0  0  0  0  0  0  0  0  0
   -8.7237    6.1071  -10.3252 N   0  0  0  0  0  0  0  0  0  0  0  0
   -8.6523    6.3419  -11.6641 N   0  0  0  0  0  0  0  0  0  0  0  0
   -9.0224    2.2091   -8.7905 N   0  0  0  0  0  0  0  0  0  0  0  0
   -8.7189    5.5501  -13.8827 N   0  0  0  0  0  0  0  0  0  0  0  0
   -8.1213    4.6112  -17.8322 N   0  0  0  0  0  0  0  0  0  0  0  0
   -9.1186    3.2028  -12.8194 H   0  0  0  0  0  0  0  0  0  0  0  0
  -10.4065    2.1382  -10.3516 H   0  0  0  0  0  0  0  0  0  0  0  0
   -8.7695    1.6554  -10.8045 H   0  0  0  0  0  0  0  0  0  0  0  0
   -7.9509    4.6900   -7.9885 H   0  0  0  0  0  0  0  0  0  0  0  0
   -9.5421    5.4622   -7.9413 H   0  0  0  0  0  0  0  0  0  0  0  0
   -9.4672    3.1004   -6.9297 H   0  0  0  0  0  0  0  0  0  0  0  0
  -10.6838    3.3414   -8.1779 H   0  0  0  0  0  0  0  0  0  0  0  0
   -6.6375    5.5436  -14.3037 H   0  0  0  0  0  0  0  0  0  0  0  0
   -7.3938    7.1440  -14.1643 H   0  0  0  0  0  0  0  0  0  0  0  0
  -10.5918    6.3384  -14.4705 H   0  0  0  0  0  0  0  0  0  0  0  0
  -10.4160    4.5870  -14.6626 H   0  0  0  0  0  0  0  0  0  0  0  0
   -6.2748    5.5475  -17.3348 H   0  0  0  0  0  0  0  0  0  0  0  0
   -6.7688    4.2466  -16.2379 H   0  0  0  0  0  0  0  0  0  0  0  0
   -9.5108    3.6422  -16.5197 H   0  0  0  0  0  0  0  0  0  0  0  0
  -10.2587    4.6672  -17.7726 H   0  0  0  0  0  0  0  0  0  0  0  0
   -7.6446    7.1334  -16.4402 H   0  0  0  0  0  0  0  0  0  0  0  0
   -9.9057    6.6625  -16.6172 H   0  0  0  0  0  0  0  0  0  0  0  0
   -8.9339    5.1091  -19.7071 H   0  0  0  0  0  0  0  0  0  0  0  0
   -8.4870    6.5052  -18.6691 H   0  0  0  0  0  0  0  0  0  0  0  0
   -7.2056    5.5425  -19.4802 H   0  0  0  0  0  0  0  0  0  0  0  0
   -9.4041    1.3226   -8.4651 H   0  0  0  0  0  0  0  0  0  0  0  0
  1  2  1  0  0  0  0
  1  4  2  0  0  0  0
  2  3  2  0  0  0  0
  2  5  1  0  0  0  0
  3  6  1  0  0  0  0
  3 15  1  0  0  0  0
  4 16  1  0  0  0  0
  4 18  1  0  0  0  0
  5 17  1  0  0  0  0
  6  7  1  0  0  0  0
  7 17  1  0  0  0  0
  8 12  1  0  0  0  0
  8 18  1  0  0  0  0
  9 13  1  0  0  0  0
  9 18  1  0  0  0  0
 10 12  1  0  0  0  0
 10 19  1  0  0  0  0
 11 13  1  0  0  0  0
 11 19  1  0  0  0  0
 12 13  1  0  0  0  0
 14 19  1  0  0  0  0
 15 16  2  0  0  0  0
  1 20  1  0  0  0  0
  5 21  1  0  0  0  0
  5 22  1  0  0  0  0
  6 23  1  0  0  0  0
  6 24  1  0  0  0  0
  7 25  1  0  0  0  0
  7 26  1  0  0  0  0
  8 27  1  0  0  0  0
  8 28  1  0  0  0  0
  9 29  1  0  0  0  0
  9 30  1  0  0  0  0
 10 31  1  0  0  0  0
 10 32  1  0  0  0  0
 11 33  1  0  0  0  0
 11 34  1  0  0  0  0
 12 35  1  0  0  0  0
 13 36  1  0  0  0  0
 14 37  1  0  0  0  0
 14 38  1  0  0  0  0
 14 39  1  0  0  0  0
 17 40  1  0  0  0  0
M  END
> <id>
EN300-718546

> <smiles>
CN1CC2CN(CC2C1)C=3C=C4CNCCC4=NN3

> <MDLNUMBER>
MFCD31440175

> <IUPAC Name>
2-methyl-5-{5H,6H,7H,8H-pyrido[4,3-c]pyridazin-3-yl}-octahydropyrrolo[3,4-c]pyrrole

> <CAS>
2138210-22-5

> <URL>
https://www.enaminestore.com/catalog/EN300-718546

> <ROCS_ShapeQuery>
_x0404_0B

> <ROCS_TanimotoCombo>
0.433 

> <ROCS_ShapeTanimoto>
0.341 

> <ROCS_ColorTanimoto>
0.093 

> <ROCS_RefTversky>
0.299 

> <ROCS_RefColorTversky>
0.100 

> <ROCS_RefTverskyCombo>
0.399 

> <ROCS_FitTversky>
1.693 

> <ROCS_FitColorTversky>
0.568 

> <ROCS_FitTverskyCombo>
2.260 

> <ROCS_ColorScore>
-7.213

> <ROCS_Overlap>
1993.739

> <ROCS_Rank>
358                 

$$$$
untitled-dbase-39095_728
  -OEChem-08222312023D

 49 51  0     1  0  0  0  0  0999 V2000
   -9.0965    5.4416   -7.9645 C   0  0  0  0  0  0  0  0  0  0  0  0
   -8.8998    6.4563   -8.9015 C   0  0  0  0  0  0  0  0  0  0  0  0
   -9.1112    3.8121   -9.7407 C   0  0  0  0  0  0  0  0  0  0  0  0
   -9.2009    4.1190   -8.3844 C   0  0  0  0  0  0  0  0  0  0  0  0
   -8.8114    6.1627  -10.2726 C   0  0  0  0  0  0  0  0  0  0  0  0
   -8.9259    4.8284  -10.6840 C   0  0  0  0  0  0  0  0  0  0  0  0
   -9.3879    3.0572   -7.4082 C   0  0  0  0  0  0  0  0  0  0  0  0
   -8.8813    5.4092  -16.6950 C   0  0  0  0  0  0  0  0  0  0  0  0
  -10.4399    5.6266  -13.3552 C   0  0  0  0  0  0  0  0  0  0  0  0
   -8.1727    6.6954  -12.6198 C   0  0  0  0  0  0  0  0  0  0  0  0
  -10.4086    6.0889  -14.8027 C   0  0  0  0  0  0  0  0  0  0  0  0
   -8.4096    4.8459  -14.3105 C   0  0  0  0  0  0  0  0  0  0  0  0
   -8.5817    7.2774  -11.2624 C   0  0  1  0  0  0  0  0  0  0  0  0
   -8.9557    5.4228  -12.9901 C   0  0  2  0  0  0  0  0  0  0  0  0
   -7.5753    6.5684  -18.9579 C   0  0  0  0  0  0  0  0  0  0  0  0
   -5.5495    5.2820  -18.2158 C   0  0  0  0  0  0  0  0  0  0  0  0
   -7.6342    4.0532  -18.8885 C   0  0  0  0  0  0  0  0  0  0  0  0
   -7.0761    5.3174  -18.2364 C   0  0  0  0  0  0  0  0  0  0  0  0
   -9.2224    5.4510  -15.3542 N   0  0  0  0  0  0  0  0  0  0  0  0
   -9.7590    8.1381  -11.3912 N   0  0  0  0  0  0  0  0  0  0  0  0
   -9.4676    3.2143   -6.1853 O   0  0  0  0  0  0  0  0  0  0  0  0
   -9.6958    5.4087  -17.6152 O   0  0  0  0  0  0  0  0  0  0  0  0
   -8.8316    4.4123  -11.9850 O   0  0  0  0  0  0  0  0  0  0  0  0
   -9.4715    1.8275   -7.9862 O   0  0  0  0  0  0  0  0  0  0  0  0
   -7.5250    5.3656  -16.8774 O   0  0  0  0  0  0  0  0  0  0  0  0
   -9.1661    5.6955   -6.9105 H   0  0  0  0  0  0  0  0  0  0  0  0
   -8.8187    7.4815   -8.5501 H   0  0  0  0  0  0  0  0  0  0  0  0
   -9.1724    2.7759  -10.0687 H   0  0  0  0  0  0  0  0  0  0  0  0
  -10.8929    6.4089  -12.7295 H   0  0  0  0  0  0  0  0  0  0  0  0
  -11.0309    4.7081  -13.2468 H   0  0  0  0  0  0  0  0  0  0  0  0
   -8.3478    7.4481  -13.4152 H   0  0  0  0  0  0  0  0  0  0  0  0
   -7.0837    6.4956  -12.6311 H   0  0  0  0  0  0  0  0  0  0  0  0
  -11.2736    5.7243  -15.3649 H   0  0  0  0  0  0  0  0  0  0  0  0
  -10.3498    7.1746  -14.9082 H   0  0  0  0  0  0  0  0  0  0  0  0
   -7.3708    5.1486  -14.4937 H   0  0  0  0  0  0  0  0  0  0  0  0
   -8.4815    3.7542  -14.3792 H   0  0  0  0  0  0  0  0  0  0  0  0
   -7.7589    7.8906  -10.8625 H   0  0  0  0  0  0  0  0  0  0  0  0
   -8.6706    6.5975  -18.9749 H   0  0  0  0  0  0  0  0  0  0  0  0
   -7.2105    7.4829  -18.4790 H   0  0  0  0  0  0  0  0  0  0  0  0
   -7.2497    6.5723  -20.0045 H   0  0  0  0  0  0  0  0  0  0  0  0
   -5.1870    4.3860  -17.6990 H   0  0  0  0  0  0  0  0  0  0  0  0
   -5.1466    6.1400  -17.6655 H   0  0  0  0  0  0  0  0  0  0  0  0
   -5.1315    5.2917  -19.2276 H   0  0  0  0  0  0  0  0  0  0  0  0
   -7.2763    3.1557  -18.3712 H   0  0  0  0  0  0  0  0  0  0  0  0
   -8.7289    4.0441  -18.8791 H   0  0  0  0  0  0  0  0  0  0  0  0
   -7.2941    3.9678  -19.9269 H   0  0  0  0  0  0  0  0  0  0  0  0
   -9.9809    8.4885  -10.4914 H   0  0  0  0  0  0  0  0  0  0  0  0
   -9.5308    8.8755  -12.0126 H   0  0  0  0  0  0  0  0  0  0  0  0
   -9.5985    1.1040   -7.3360 H   0  0  0  0  0  0  0  0  0  0  0  0
  1  2  1  0  0  0  0
  1  4  2  0  0  0  0
  2  5  2  0  0  0  0
  3  4  1  0  0  0  0
  3  6  2  0  0  0  0
  4  7  1  0  0  0  0
  5  6  1  0  0  0  0
  5 13  1  0  0  0  0
  6 23  1  0  0  0  0
  7 21  2  0  0  0  0
  7 24  1  0  0  0  0
  8 19  1  0  0  0  0
  8 22  2  0  0  0  0
  8 25  1  0  0  0  0
  9 11  1  0  0  0  0
  9 14  1  0  0  0  0
 10 13  1  0  0  0  0
 10 14  1  0  0  0  0
 11 19  1  0  0  0  0
 12 14  1  0  0  0  0
 12 19  1  0  0  0  0
 13 20  1  0  0  0  0
 14 23  1  0  0  0  0
 15 18  1  0  0  0  0
 16 18  1  0  0  0  0
 17 18  1  0  0  0  0
 18 25  1  0  0  0  0
  1 26  1  0  0  0  0
  2 27  1  0  0  0  0
  3 28  1  0  0  0  0
  9 29  1  0  0  0  0
  9 30  1  0  0  0  0
 10 31  1  0  0  0  0
 10 32  1  0  0  0  0
 11 33  1  0  0  0  0
 11 34  1  0  0  0  0
 12 35  1  0  0  0  0
 12 36  1  0  0  0  0
 13 37  1  0  0  0  0
 15 38  1  0  0  0  0
 15 39  1  0  0  0  0
 15 40  1  0  0  0  0
 16 41  1  0  0  0  0
 16 42  1  0  0  0  0
 16 43  1  0  0  0  0
 17 44  1  0  0  0  0
 17 45  1  0  0  0  0
 17 46  1  0  0  0  0
 20 47  1  0  0  0  0
 20 48  1  0  0  0  0
 24 49  1  0  0  0  0
M  END
> <id>
EN300-1129088

> <smiles>
CC(C)(C)OC(=O)N1CCC2(C1)CC(N)C=3C=CC(=CC3O2)C(=O)O

> <IUPAC Name>
4-amino-1'-[(tert-butoxy)carbonyl]-3,4-dihydrospiro[1-benzopyran-2,3'-pyrrolidine]-7-carboxylic acid

> <CAS>
2138012-16-3

> <URL>
https://www.enaminestore.com/catalog/EN300-1129088

> <ROCS_ShapeQuery>
_x0404_0B

> <ROCS_TanimotoCombo>
0.433 

> <ROCS_ShapeTanimoto>
0.390 

> <ROCS_ColorTanimoto>
0.043 

> <ROCS_RefTversky>
0.341 

> <ROCS_RefColorTversky>
0.049 

> <ROCS_RefTverskyCombo>
0.390 

> <ROCS_FitTversky>
1.594 

> <ROCS_FitColorTversky>
0.250 

> <ROCS_FitTverskyCombo>
1.844 

> <ROCS_ColorScore>
-3.568

> <ROCS_Overlap>
2277.353

> <ROCS_Rank>
359                 

$$$$
untitled-dbase-97585_199
  -OEChem-08222312023D

 50 52  0     0  0  0  0  0  0999 V2000
   -8.5087    5.9475  -15.2953 B   0  0  0  0  0  0  0  0  0  0  0  0
   -9.4334    8.4241  -12.5131 C   0  0  0  0  0  0  0  0  0  0  0  0
   -9.1459    7.8579  -13.7527 C   0  0  0  0  0  0  0  0  0  0  0  0
   -9.4020    7.6576  -11.3430 C   0  0  0  0  0  0  0  0  0  0  0  0
   -8.5070    4.3730  -12.3971 C   0  0  0  0  0  0  0  0  0  0  0  0
   -8.8177    6.5030  -13.8594 C   0  0  0  0  0  0  0  0  0  0  0  0
   -8.7821    5.7194  -12.6926 C   0  0  0  0  0  0  0  0  0  0  0  0
   -9.0714    6.2988  -11.4581 C   0  0  0  0  0  0  0  0  0  0  0  0
   -9.1380    5.3377   -9.1421 C   0  0  0  0  0  0  0  0  0  0  0  0
   -7.3901    5.5462  -17.2530 C   0  0  0  0  0  0  0  0  0  0  0  0
   -8.7793    4.8251  -17.2733 C   0  0  0  0  0  0  0  0  0  0  0  0
   -6.1785    4.6156  -17.0203 C   0  0  0  0  0  0  0  0  0  0  0  0
   -7.0947    6.4029  -18.4921 C   0  0  0  0  0  0  0  0  0  0  0  0
   -8.7248    3.3398  -17.6573 C   0  0  0  0  0  0  0  0  0  0  0  0
   -9.8508    5.5039  -18.1559 C   0  0  0  0  0  0  0  0  0  0  0  0
   -8.5991    4.4450   -6.5047 C   0  0  0  0  0  0  0  0  0  0  0  0
   -9.3851    2.1973   -7.3042 C   0  0  0  0  0  0  0  0  0  0  0  0
   -7.3655    3.2612   -8.3517 C   0  0  0  0  0  0  0  0  0  0  0  0
   -8.7288    3.5151   -7.7102 C   0  0  0  0  0  0  0  0  0  0  0  0
   -8.6059    4.0964  -11.0990 N   0  0  0  0  0  0  0  0  0  0  0  0
   -8.9512    5.2770  -10.5255 N   0  0  0  0  0  0  0  0  0  0  0  0
   -8.9138    6.3616   -8.5178 O   0  0  0  0  0  0  0  0  0  0  0  0
   -7.4750    6.4366  -16.0940 O   0  0  0  0  0  0  0  0  0  0  0  0
   -9.2428    4.9200  -15.8877 O   0  0  0  0  0  0  0  0  0  0  0  0
   -9.5781    4.1396   -8.6774 O   0  0  0  0  0  0  0  0  0  0  0  0
   -9.6871    9.4794  -12.4513 H   0  0  0  0  0  0  0  0  0  0  0  0
   -9.1866    8.5031  -14.6292 H   0  0  0  0  0  0  0  0  0  0  0  0
   -9.6287    8.1164  -10.3872 H   0  0  0  0  0  0  0  0  0  0  0  0
   -8.2373    3.5723  -13.0712 H   0  0  0  0  0  0  0  0  0  0  0  0
   -5.2735    5.2100  -17.0243 H   0  0  0  0  0  0  0  0  0  0  0  0
   -6.1427    3.8807  -17.8147 H   0  0  0  0  0  0  0  0  0  0  0  0
   -6.2936    4.1220  -16.0635 H   0  0  0  0  0  0  0  0  0  0  0  0
   -6.1154    6.8611  -18.3893 H   0  0  0  0  0  0  0  0  0  0  0  0
   -7.8501    7.1779  -18.5836 H   0  0  0  0  0  0  0  0  0  0  0  0
   -7.1102    5.7744  -19.3778 H   0  0  0  0  0  0  0  0  0  0  0  0
   -9.7291    2.9263  -17.6446 H   0  0  0  0  0  0  0  0  0  0  0  0
   -8.1033    2.8051  -16.9450 H   0  0  0  0  0  0  0  0  0  0  0  0
   -8.3037    3.2395  -18.6535 H   0  0  0  0  0  0  0  0  0  0  0  0
  -10.7670    4.9296  -18.0999 H   0  0  0  0  0  0  0  0  0  0  0  0
   -9.4949    5.5353  -19.1780 H   0  0  0  0  0  0  0  0  0  0  0  0
  -10.0205    6.5092  -17.7912 H   0  0  0  0  0  0  0  0  0  0  0  0
   -8.1284    5.3921   -6.7920 H   0  0  0  0  0  0  0  0  0  0  0  0
   -9.5740    4.6630   -6.0566 H   0  0  0  0  0  0  0  0  0  0  0  0
   -7.9563    4.0011   -5.7359 H   0  0  0  0  0  0  0  0  0  0  0  0
   -9.4803    1.5270   -8.1662 H   0  0  0  0  0  0  0  0  0  0  0  0
  -10.4017    2.3663   -6.9309 H   0  0  0  0  0  0  0  0  0  0  0  0
   -8.8113    1.6829   -6.5267 H   0  0  0  0  0  0  0  0  0  0  0  0
   -7.4583    2.5942   -9.2165 H   0  0  0  0  0  0  0  0  0  0  0  0
   -6.8957    4.1931   -8.6829 H   0  0  0  0  0  0  0  0  0  0  0  0
   -6.6903    2.7620   -7.6473 H   0  0  0  0  0  0  0  0  0  0  0  0
  1  6  1  0  0  0  0
  1 23  1  0  0  0  0
  1 24  1  0  0  0  0
  2  3  2  0  0  0  0
  2  4  1  0  0  0  0
  3  6  1  0  0  0  0
  4  8  2  0  0  0  0
  5  7  1  0  0  0  0
  5 20  2  0  0  0  0
  6  7  2  0  0  0  0
  7  8  1  0  0  0  0
  8 21  1  0  0  0  0
  9 21  1  0  0  0  0
  9 22  2  0  0  0  0
  9 25  1  0  0  0  0
 10 11  1  0  0  0  0
 10 12  1  0  0  0  0
 10 13  1  0  0  0  0
 10 23  1  0  0  0  0
 11 14  1  0  0  0  0
 11 15  1  0  0  0  0
 11 24  1  0  0  0  0
 16 19  1  0  0  0  0
 17 19  1  0  0  0  0
 18 19  1  0  0  0  0
 19 25  1  0  0  0  0
 20 21  1  0  0  0  0
  2 26  1  0  0  0  0
  3 27  1  0  0  0  0
  4 28  1  0  0  0  0
  5 29  1  0  0  0  0
 12 30  1  0  0  0  0
 12 31  1  0  0  0  0
 12 32  1  0  0  0  0
 13 33  1  0  0  0  0
 13 34  1  0  0  0  0
 13 35  1  0  0  0  0
 14 36  1  0  0  0  0
 14 37  1  0  0  0  0
 14 38  1  0  0  0  0
 15 39  1  0  0  0  0
 15 40  1  0  0  0  0
 15 41  1  0  0  0  0
 16 42  1  0  0  0  0
 16 43  1  0  0  0  0
 16 44  1  0  0  0  0
 17 45  1  0  0  0  0
 17 46  1  0  0  0  0
 17 47  1  0  0  0  0
 18 48  1  0  0  0  0
 18 49  1  0  0  0  0
 18 50  1  0  0  0  0
M  END
> <id>
EN300-7398654

> <smiles>
CC(C)(C)OC(=O)N1N=CC=2C(=CC=CC12)B3OC(C)(C)C(C)(C)O3

> <MDLNUMBER>
MFCD22577263

> <IUPAC Name>
tert-butyl 4-(tetramethyl-1,3,2-dioxaborolan-2-yl)-1H-indazole-1-carboxylate

> <CAS>
1446443-06-6

> <URL>
https://www.enaminestore.com/catalog/EN300-7398654

> <ROCS_ShapeQuery>
_x0404_0B

> <ROCS_TanimotoCombo>
0.433 

> <ROCS_ShapeTanimoto>
0.392 

> <ROCS_ColorTanimoto>
0.041 

> <ROCS_RefTversky>
0.342 

> <ROCS_RefColorTversky>
0.045 

> <ROCS_RefTverskyCombo>
0.388 

> <ROCS_FitTversky>
1.595 

> <ROCS_FitColorTversky>
0.288 

> <ROCS_FitTverskyCombo>
1.883 

> <ROCS_ColorScore>
-3.285

> <ROCS_Overlap>
2287.350

> <ROCS_Rank>
360                 

$$$$
untitled-dbase-117959_271
  -OEChem-08222312023D

 49 51  0     1  0  0  0  0  0999 V2000
   -8.9967    3.4092   -9.0860 C   0  0  0  0  0  0  0  0  0  0  0  0
   -8.6879    6.1531  -12.2374 C   0  0  0  0  0  0  0  0  0  0  0  0
   -8.7751    6.5897  -10.9131 C   0  0  0  0  0  0  0  0  0  0  0  0
   -9.0818    3.8747   -7.7817 C   0  0  0  0  0  0  0  0  0  0  0  0
   -8.8052    3.8739  -11.4837 C   0  0  0  0  0  0  0  0  0  0  0  0
   -8.8929    4.3133  -10.1518 C   0  0  0  0  0  0  0  0  0  0  0  0
   -8.7029    4.7936  -12.5234 C   0  0  0  0  0  0  0  0  0  0  0  0
   -8.8784    5.6920   -9.8540 C   0  0  0  0  0  0  0  0  0  0  0  0
   -9.0597    5.2412   -7.5892 C   0  0  0  0  0  0  0  0  0  0  0  0
   -7.5238    5.9293  -15.5457 C   0  0  0  0  0  0  0  0  0  0  0  0
   -6.2754    2.6824  -14.6279 C   0  0  0  0  0  0  0  0  0  0  0  0
   -6.1462    4.1776  -14.3545 C   0  0  0  0  0  0  0  0  0  0  0  0
   -8.6565    2.7861  -14.2208 C   0  0  0  0  0  0  0  0  0  0  0  0
   -8.6080    4.3112  -13.9709 C   0  0  2  0  0  0  0  0  0  0  0  0
   -9.1483    5.7868   -6.2030 C   0  0  0  0  0  0  0  0  0  0  0  0
   -7.9710    7.0477  -18.1420 C   0  0  0  0  0  0  0  0  0  0  0  0
   -5.9294    5.7635  -18.8433 C   0  0  0  0  0  0  0  0  0  0  0  0
   -7.9565    4.5341  -18.0141 C   0  0  0  0  0  0  0  0  0  0  0  0
   -7.1187    5.8055  -17.8862 C   0  0  0  0  0  0  0  0  0  0  0  0
   -8.9608    6.1468   -8.5893 N   0  0  0  0  0  0  0  0  0  0  0  0
   -7.4015    2.0937  -13.9015 N   0  0  0  0  0  0  0  0  0  0  0  0
   -7.4117    4.8579  -14.6505 N   0  0  0  0  0  0  0  0  0  0  0  0
   -8.3570    6.8287  -15.4488 O   0  0  0  0  0  0  0  0  0  0  0  0
   -6.5980    5.8765  -16.5538 O   0  0  0  0  0  0  0  0  0  0  0  0
   -9.0118    2.3369   -9.2673 H   0  0  0  0  0  0  0  0  0  0  0  0
   -8.6082    6.8856  -13.0363 H   0  0  0  0  0  0  0  0  0  0  0  0
   -8.7619    7.6600  -10.7157 H   0  0  0  0  0  0  0  0  0  0  0  0
   -9.1617    3.1815   -6.9517 H   0  0  0  0  0  0  0  0  0  0  0  0
   -8.8167    2.8091  -11.7094 H   0  0  0  0  0  0  0  0  0  0  0  0
   -6.3805    2.5000  -15.7062 H   0  0  0  0  0  0  0  0  0  0  0  0
   -5.3523    2.1808  -14.3120 H   0  0  0  0  0  0  0  0  0  0  0  0
   -5.9272    4.3547  -13.3045 H   0  0  0  0  0  0  0  0  0  0  0  0
   -5.3414    4.5959  -14.9491 H   0  0  0  0  0  0  0  0  0  0  0  0
   -9.4649    2.3304  -13.6393 H   0  0  0  0  0  0  0  0  0  0  0  0
   -8.8920    2.6102  -15.2772 H   0  0  0  0  0  0  0  0  0  0  0  0
   -9.5003    4.7548  -14.5007 H   0  0  0  0  0  0  0  0  0  0  0  0
   -8.1459    5.8988   -5.7729 H   0  0  0  0  0  0  0  0  0  0  0  0
   -9.6438    6.7659   -6.1921 H   0  0  0  0  0  0  0  0  0  0  0  0
   -9.7351    5.1258   -5.5525 H   0  0  0  0  0  0  0  0  0  0  0  0
   -8.8258    7.0815  -17.4570 H   0  0  0  0  0  0  0  0  0  0  0  0
   -7.3903    7.9677  -18.0191 H   0  0  0  0  0  0  0  0  0  0  0  0
   -8.3876    7.0341  -19.1557 H   0  0  0  0  0  0  0  0  0  0  0  0
   -5.3150    4.8739  -18.6634 H   0  0  0  0  0  0  0  0  0  0  0  0
   -5.2734    6.6279  -18.6890 H   0  0  0  0  0  0  0  0  0  0  0  0
   -6.2525    5.7559  -19.8893 H   0  0  0  0  0  0  0  0  0  0  0  0
   -7.3453    3.6430  -17.8307 H   0  0  0  0  0  0  0  0  0  0  0  0
   -8.7937    4.5301  -17.3086 H   0  0  0  0  0  0  0  0  0  0  0  0
   -8.3562    4.4313  -19.0295 H   0  0  0  0  0  0  0  0  0  0  0  0
   -7.4892    1.1092  -14.1520 H   0  0  0  0  0  0  0  0  0  0  0  0
  1  4  1  0  0  0  0
  1  6  2  0  0  0  0
  2  3  2  0  0  0  0
  2  7  1  0  0  0  0
  3  8  1  0  0  0  0
  4  9  2  0  0  0  0
  5  6  1  0  0  0  0
  5  7  2  0  0  0  0
  6  8  1  0  0  0  0
  7 14  1  0  0  0  0
  8 20  2  0  0  0  0
  9 15  1  0  0  0  0
  9 20  1  0  0  0  0
 10 22  1  0  0  0  0
 10 23  2  0  0  0  0
 10 24  1  0  0  0  0
 11 12  1  0  0  0  0
 11 21  1  0  0  0  0
 12 22  1  0  0  0  0
 13 14  1  0  0  0  0
 13 21  1  0  0  0  0
 14 22  1  0  0  0  0
 16 19  1  0  0  0  0
 17 19  1  0  0  0  0
 18 19  1  0  0  0  0
 19 24  1  0  0  0  0
  1 25  1  0  0  0  0
  2 26  1  0  0  0  0
  3 27  1  0  0  0  0
  4 28  1  0  0  0  0
  5 29  1  0  0  0  0
 11 30  1  0  0  0  0
 11 31  1  0  0  0  0
 12 32  1  0  0  0  0
 12 33  1  0  0  0  0
 13 34  1  0  0  0  0
 13 35  1  0  0  0  0
 14 36  1  0  0  0  0
 15 37  1  0  0  0  0
 15 38  1  0  0  0  0
 15 39  1  0  0  0  0
 16 40  1  0  0  0  0
 16 41  1  0  0  0  0
 16 42  1  0  0  0  0
 17 43  1  0  0  0  0
 17 44  1  0  0  0  0
 17 45  1  0  0  0  0
 18 46  1  0  0  0  0
 18 47  1  0  0  0  0
 18 48  1  0  0  0  0
 21 49  1  0  0  0  0
M  END
> <id>
EN300-1891076

> <smiles>
CC=1C=CC=2C=C(C=CC2N1)C3CNCCN3C(=O)OC(C)(C)C

> <IUPAC Name>
tert-butyl 2-(2-methylquinolin-6-yl)piperazine-1-carboxylate

> <CAS>
2229092-52-6

> <URL>
https://www.enaminestore.com/catalog/EN300-1891076

> <ROCS_ShapeQuery>
_x0404_0B

> <ROCS_TanimotoCombo>
0.433 

> <ROCS_ShapeTanimoto>
0.339 

> <ROCS_ColorTanimoto>
0.094 

> <ROCS_RefTversky>
0.306 

> <ROCS_RefColorTversky>
0.099 

> <ROCS_RefTverskyCombo>
0.405 

> <ROCS_FitTversky>
1.479 

> <ROCS_FitColorTversky>
0.630 

> <ROCS_FitTverskyCombo>
2.109 

> <ROCS_ColorScore>
-7.178

> <ROCS_Overlap>
2042.218

> <ROCS_Rank>
361                 

$$$$
untitled-dbase-152157_2373
  -OEChem-08222312023D

 53 53  0     1  0  0  0  0  0999 V2000
   -8.7762    3.4763   -9.3273 C   0  0  0  0  0  0  0  0  0  0  0  0
   -8.2655    5.3438  -14.6650 C   0  0  0  0  0  0  0  0  0  0  0  0
   -8.3671    6.5783  -11.4216 C   0  0  0  0  0  0  0  0  0  0  0  0
   -8.7228    5.7982  -10.1588 C   0  0  0  0  0  0  0  0  0  0  0  0
   -7.4581    5.8091  -12.3732 C   0  0  0  0  0  0  0  0  0  0  0  0
   -9.7893    4.0157  -11.5720 C   0  0  0  0  0  0  0  0  0  0  0  0
   -8.8871    3.7529  -12.7924 C   0  0  2  0  0  0  0  0  0  0  0  0
   -7.9547    2.0181   -7.0054 C   0  0  0  0  0  0  0  0  0  0  0  0
   -7.7188    4.2641   -5.9058 C   0  0  0  0  0  0  0  0  0  0  0  0
   -9.9689    3.4998   -6.7188 C   0  0  0  0  0  0  0  0  0  0  0  0
   -7.1384    5.2760  -17.2964 C   0  0  0  0  0  0  0  0  0  0  0  0
   -8.5707    3.2443  -17.6566 C   0  0  0  0  0  0  0  0  0  0  0  0
   -9.6455    5.4634  -17.1782 C   0  0  0  0  0  0  0  0  0  0  0  0
   -7.8675    2.6336  -12.5719 C   0  0  0  0  0  0  0  0  0  0  0  0
   -8.4622    3.4589   -6.9694 C   0  0  0  0  0  0  0  0  0  0  0  0
   -8.4363    4.5690  -16.9087 C   0  0  0  0  0  0  0  0  0  0  0  0
   -9.0632    4.3897  -10.3549 N   0  0  0  0  0  0  0  0  0  0  0  0
   -8.2238    4.9735  -13.3078 N   0  0  0  0  0  0  0  0  0  0  0  0
   -9.0187    2.2717   -9.3845 O   0  0  0  0  0  0  0  0  0  0  0  0
   -8.1923    6.5029  -15.0702 O   0  0  0  0  0  0  0  0  0  0  0  0
   -7.4426    2.1617  -13.8358 O   0  0  0  0  0  0  0  0  0  0  0  0
   -8.1942    4.0682   -8.2373 O   0  0  0  0  0  0  0  0  0  0  0  0
   -8.3923    4.2714  -15.5084 O   0  0  0  0  0  0  0  0  0  0  0  0
   -9.2819    6.8884  -11.9391 H   0  0  0  0  0  0  0  0  0  0  0  0
   -7.8566    7.4992  -11.1188 H   0  0  0  0  0  0  0  0  0  0  0  0
   -7.8862    5.8443   -9.4315 H   0  0  0  0  0  0  0  0  0  0  0  0
   -9.5682    6.3093   -9.6553 H   0  0  0  0  0  0  0  0  0  0  0  0
   -6.8586    6.5270  -12.9466 H   0  0  0  0  0  0  0  0  0  0  0  0
   -6.7419    5.1801  -11.8295 H   0  0  0  0  0  0  0  0  0  0  0  0
  -10.4995    4.8233  -11.8216 H   0  0  0  0  0  0  0  0  0  0  0  0
  -10.4191    3.1375  -11.3441 H   0  0  0  0  0  0  0  0  0  0  0  0
   -9.5585    3.4092  -13.6146 H   0  0  0  0  0  0  0  0  0  0  0  0
   -8.4858    1.4368   -7.7677 H   0  0  0  0  0  0  0  0  0  0  0  0
   -6.8818    1.9735   -7.2191 H   0  0  0  0  0  0  0  0  0  0  0  0
   -8.1384    1.5148   -6.0493 H   0  0  0  0  0  0  0  0  0  0  0  0
   -8.0797    5.2985   -5.8764 H   0  0  0  0  0  0  0  0  0  0  0  0
   -6.6481    4.3171   -6.1338 H   0  0  0  0  0  0  0  0  0  0  0  0
   -7.8399    3.8263   -4.9097 H   0  0  0  0  0  0  0  0  0  0  0  0
  -10.3332    4.5332   -6.6929 H   0  0  0  0  0  0  0  0  0  0  0  0
  -10.5214    2.9579   -7.4932 H   0  0  0  0  0  0  0  0  0  0  0  0
  -10.2140    3.0611   -5.7447 H   0  0  0  0  0  0  0  0  0  0  0  0
   -7.0381    6.2273  -16.7617 H   0  0  0  0  0  0  0  0  0  0  0  0
   -6.2613    4.6589  -17.0757 H   0  0  0  0  0  0  0  0  0  0  0  0
   -7.1300    5.5197  -18.3650 H   0  0  0  0  0  0  0  0  0  0  0  0
   -9.5006    2.7336  -17.3814 H   0  0  0  0  0  0  0  0  0  0  0  0
   -7.7543    2.5624  -17.3926 H   0  0  0  0  0  0  0  0  0  0  0  0
   -8.5634    3.3904  -18.7416 H   0  0  0  0  0  0  0  0  0  0  0  0
  -10.5766    4.9565  -16.9002 H   0  0  0  0  0  0  0  0  0  0  0  0
   -9.5840    6.4035  -16.6206 H   0  0  0  0  0  0  0  0  0  0  0  0
   -9.7273    5.6966  -18.2460 H   0  0  0  0  0  0  0  0  0  0  0  0
   -8.3299    1.8194  -12.0168 H   0  0  0  0  0  0  0  0  0  0  0  0
   -7.0114    3.0192  -12.0214 H   0  0  0  0  0  0  0  0  0  0  0  0
   -7.0410    2.9146  -14.3030 H   0  0  0  0  0  0  0  0  0  0  0  0
  1 17  1  0  0  0  0
  1 19  2  0  0  0  0
  1 22  1  0  0  0  0
  2 18  1  0  0  0  0
  2 20  2  0  0  0  0
  2 23  1  0  0  0  0
  3  4  1  0  0  0  0
  3  5  1  0  0  0  0
  4 17  1  0  0  0  0
  5 18  1  0  0  0  0
  6  7  1  0  0  0  0
  6 17  1  0  0  0  0
  7 14  1  0  0  0  0
  7 18  1  0  0  0  0
  8 15  1  0  0  0  0
  9 15  1  0  0  0  0
 10 15  1  0  0  0  0
 11 16  1  0  0  0  0
 12 16  1  0  0  0  0
 13 16  1  0  0  0  0
 14 21  1  0  0  0  0
 15 22  1  0  0  0  0
 16 23  1  0  0  0  0
  3 24  1  0  0  0  0
  3 25  1  0  0  0  0
  4 26  1  0  0  0  0
  4 27  1  0  0  0  0
  5 28  1  0  0  0  0
  5 29  1  0  0  0  0
  6 30  1  0  0  0  0
  6 31  1  0  0  0  0
  7 32  1  0  0  0  0
  8 33  1  0  0  0  0
  8 34  1  0  0  0  0
  8 35  1  0  0  0  0
  9 36  1  0  0  0  0
  9 37  1  0  0  0  0
  9 38  1  0  0  0  0
 10 39  1  0  0  0  0
 10 40  1  0  0  0  0
 10 41  1  0  0  0  0
 11 42  1  0  0  0  0
 11 43  1  0  0  0  0
 11 44  1  0  0  0  0
 12 45  1  0  0  0  0
 12 46  1  0  0  0  0
 12 47  1  0  0  0  0
 13 48  1  0  0  0  0
 13 49  1  0  0  0  0
 13 50  1  0  0  0  0
 14 51  1  0  0  0  0
 14 52  1  0  0  0  0
 21 53  1  0  0  0  0
M  END
> <id>
EN300-27782470

> <smiles>
CC(C)(C)OC(=O)N1CCCN(C(CO)C1)C(=O)OC(C)(C)C

> <IUPAC Name>
1,4-di-tert-butyl 2-(hydroxymethyl)-1,4-diazepane-1,4-dicarboxylate

> <CAS>
2680708-24-9

> <URL>
https://www.enaminestore.com/catalog/EN300-27782470

> <ROCS_ShapeQuery>
_x0404_0B

> <ROCS_TanimotoCombo>
0.433 

> <ROCS_ShapeTanimoto>
0.320 

> <ROCS_ColorTanimoto>
0.113 

> <ROCS_RefTversky>
0.290 

> <ROCS_RefColorTversky>
0.116 

> <ROCS_RefTverskyCombo>
0.406 

> <ROCS_FitTversky>
1.493 

> <ROCS_FitColorTversky>
0.804 

> <ROCS_FitTverskyCombo>
2.297 

> <ROCS_ColorScore>
-8.391

> <ROCS_Overlap>
1932.938

> <ROCS_Rank>
362                 

$$$$
untitled-dbase-115581_152
  -OEChem-08222312023D

 38 40  0     1  0  0  0  0  0999 V2000
   -9.4588    5.1729  -15.8422 C   0  0  0  0  0  0  0  0  0  0  0  0
   -7.3693    6.2711  -16.3033 C   0  0  0  0  0  0  0  0  0  0  0  0
   -9.2994    4.4865  -17.0352 C   0  0  0  0  0  0  0  0  0  0  0  0
   -8.4709    6.0804  -15.4765 C   0  0  0  0  0  0  0  0  0  0  0  0
   -7.3034    5.5354  -17.4756 C   0  0  0  0  0  0  0  0  0  0  0  0
   -8.9039    4.1027   -9.2786 C   0  0  0  0  0  0  0  0  0  0  0  0
   -8.5914    6.8362  -14.2192 C   0  0  0  0  0  0  0  0  0  0  0  0
   -9.0640    3.6440   -7.0787 C   0  0  0  0  0  0  0  0  0  0  0  0
   -9.4721    6.0349  -10.6814 C   0  0  0  0  0  0  0  0  0  0  0  0
   -8.0174    4.2065  -11.5665 C   0  0  0  0  0  0  0  0  0  0  0  0
   -8.7839    6.8582  -11.7619 C   0  0  0  0  0  0  0  0  0  0  0  0
   -8.5540    4.6532  -12.9218 C   0  0  0  0  0  0  0  0  0  0  0  0
   -9.4811    2.2901   -7.6566 C   0  0  1  0  0  0  0  0  0  0  0  0
  -10.9936    2.1025   -7.6734 C   0  0  0  0  0  0  0  0  0  0  0  0
   -8.2434    4.6450  -17.8643 N   0  0  0  0  0  0  0  0  0  0  0  0
   -9.0626    4.6801   -8.1363 N   0  0  0  0  0  0  0  0  0  0  0  0
   -8.8020    4.7574  -10.4677 N   0  0  0  0  0  0  0  0  0  0  0  0
   -8.6596    6.1180  -13.0204 N   0  0  0  0  0  0  0  0  0  0  0  0
   -8.6272    8.0624  -14.3139 O   0  0  0  0  0  0  0  0  0  0  0  0
   -8.8411    2.3706   -9.3501 S   0  0  0  0  0  0  0  0  0  0  0  0
   -5.9814    5.7048  -18.5560 Cl  0  0  0  0  0  0  0  0  0  0  0  0
  -10.3307    5.0002  -15.2201 H   0  0  0  0  0  0  0  0  0  0  0  0
   -6.5867    6.9748  -16.0356 H   0  0  0  0  0  0  0  0  0  0  0  0
  -10.0417    3.7674  -17.3656 H   0  0  0  0  0  0  0  0  0  0  0  0
   -9.7348    3.9507   -6.2684 H   0  0  0  0  0  0  0  0  0  0  0  0
   -8.0541    3.5852   -6.6530 H   0  0  0  0  0  0  0  0  0  0  0  0
   -9.4985    6.6238   -9.7516 H   0  0  0  0  0  0  0  0  0  0  0  0
  -10.5206    5.8468  -10.9604 H   0  0  0  0  0  0  0  0  0  0  0  0
   -8.0279    3.1070  -11.4999 H   0  0  0  0  0  0  0  0  0  0  0  0
   -6.9625    4.5125  -11.4867 H   0  0  0  0  0  0  0  0  0  0  0  0
   -9.3334    7.7994  -11.9230 H   0  0  0  0  0  0  0  0  0  0  0  0
   -7.7650    7.1387  -11.4454 H   0  0  0  0  0  0  0  0  0  0  0  0
   -7.8803    4.3219  -13.7312 H   0  0  0  0  0  0  0  0  0  0  0  0
   -9.5240    4.1680  -13.1098 H   0  0  0  0  0  0  0  0  0  0  0  0
   -9.0138    1.4677   -7.1048 H   0  0  0  0  0  0  0  0  0  0  0  0
  -11.4639    2.9187   -8.2217 H   0  0  0  0  0  0  0  0  0  0  0  0
  -11.3788    2.0926   -6.6540 H   0  0  0  0  0  0  0  0  0  0  0  0
  -11.2464    1.1590   -8.1569 H   0  0  0  0  0  0  0  0  0  0  0  0
  1  3  1  0  0  0  0
  1  4  2  0  0  0  0
  2  4  1  0  0  0  0
  2  5  2  0  0  0  0
  3 15  2  0  0  0  0
  4  7  1  0  0  0  0
  5 15  1  0  0  0  0
  5 21  1  0  0  0  0
  6 16  2  0  0  0  0
  6 17  1  0  0  0  0
  6 20  1  0  0  0  0
  7 18  1  0  0  0  0
  7 19  2  0  0  0  0
  8 13  1  0  0  0  0
  8 16  1  0  0  0  0
  9 11  1  0  0  0  0
  9 17  1  0  0  0  0
 10 12  1  0  0  0  0
 10 17  1  0  0  0  0
 11 18  1  0  0  0  0
 12 18  1  0  0  0  0
 13 14  1  0  0  0  0
 13 20  1  0  0  0  0
  1 22  1  0  0  0  0
  2 23  1  0  0  0  0
  3 24  1  0  0  0  0
  8 25  1  0  0  0  0
  8 26  1  0  0  0  0
  9 27  1  0  0  0  0
  9 28  1  0  0  0  0
 10 29  1  0  0  0  0
 10 30  1  0  0  0  0
 11 31  1  0  0  0  0
 11 32  1  0  0  0  0
 12 33  1  0  0  0  0
 12 34  1  0  0  0  0
 13 35  1  0  0  0  0
 14 36  1  0  0  0  0
 14 37  1  0  0  0  0
 14 38  1  0  0  0  0
M  END
> <id>
EN300-26599146

> <smiles>
CC1CN=C(S1)N2CCN(CC2)C(=O)C=3C=CN=C(Cl)C3

> <IUPAC Name>
1-(2-chloropyridine-4-carbonyl)-4-(5-methyl-4,5-dihydro-1,3-thiazol-2-yl)piperazine

> <CAS>
1385425-37-5

> <URL>
https://www.enaminestore.com/catalog/EN300-26599146

> <ROCS_ShapeQuery>
_x0404_0B

> <ROCS_TanimotoCombo>
0.433 

> <ROCS_ShapeTanimoto>
0.368 

> <ROCS_ColorTanimoto>
0.066 

> <ROCS_RefTversky>
0.318 

> <ROCS_RefColorTversky>
0.070 

> <ROCS_RefTverskyCombo>
0.388 

> <ROCS_FitTversky>
1.734 

> <ROCS_FitColorTversky>
0.529 

> <ROCS_FitTverskyCombo>
2.263 

> <ROCS_ColorScore>
-5.017

> <ROCS_Overlap>
2122.660

> <ROCS_Rank>
363                 

$$$$
untitled-dbase-106940_573
  -OEChem-08222312023D

 44 46  0     1  0  0  0  0  0999 V2000
   -9.6205    4.3011  -16.5443 C   0  0  0  0  0  0  0  0  0  0  0  0
   -9.8517    3.9351  -17.8605 C   0  0  0  0  0  0  0  0  0  0  0  0
   -8.0370    5.1308  -18.6056 C   0  0  0  0  0  0  0  0  0  0  0  0
   -8.5327    5.1256  -16.2796 C   0  0  0  0  0  0  0  0  0  0  0  0
   -7.7208    5.5530  -17.3244 C   0  0  0  0  0  0  0  0  0  0  0  0
   -9.2835    5.4007   -9.1727 C   0  0  0  0  0  0  0  0  0  0  0  0
   -9.2583    4.9769  -13.8044 C   0  0  0  0  0  0  0  0  0  0  0  0
   -8.8715    6.2675  -11.5663 C   0  0  0  0  0  0  0  0  0  0  0  0
   -8.9262    4.1270  -11.3671 C   0  0  0  0  0  0  0  0  0  0  0  0
   -6.9187    5.0728  -14.2795 C   0  0  0  0  0  0  0  0  0  0  0  0
   -8.2704    5.5321  -14.8435 C   0  0  1  0  0  0  0  0  0  0  0  0
   -8.4878    5.0879  -12.4909 C   0  0  0  0  0  0  0  0  0  0  0  0
   -9.0883    4.4523   -6.4868 C   0  0  0  0  0  0  0  0  0  0  0  0
  -10.3508    2.4395   -7.3014 C   0  0  0  0  0  0  0  0  0  0  0  0
   -8.0886    2.9677   -8.2563 C   0  0  0  0  0  0  0  0  0  0  0  0
   -9.3802    3.5535   -7.6875 C   0  0  0  0  0  0  0  0  0  0  0  0
   -9.0853    4.3302  -18.9017 N   0  0  0  0  0  0  0  0  0  0  0  0
   -9.0518    5.2895  -10.5157 N   0  0  0  0  0  0  0  0  0  0  0  0
   -8.8889    6.3338   -8.4789 O   0  0  0  0  0  0  0  0  0  0  0  0
   -7.0857    5.0373  -12.8544 O   0  0  0  0  0  0  0  0  0  0  0  0
   -8.3307    6.9622  -14.8189 O   0  0  0  0  0  0  0  0  0  0  0  0
  -10.0099    4.3412   -8.7039 O   0  0  0  0  0  0  0  0  0  0  0  0
   -6.2239    6.6734  -17.0544 Br  0  0  0  0  0  0  0  0  0  0  0  0
  -10.2735    3.9500  -15.7525 H   0  0  0  0  0  0  0  0  0  0  0  0
  -10.6873    3.2934  -18.1198 H   0  0  0  0  0  0  0  0  0  0  0  0
   -7.4447    5.4276  -19.4661 H   0  0  0  0  0  0  0  0  0  0  0  0
  -10.2049    5.5289  -13.7857 H   0  0  0  0  0  0  0  0  0  0  0  0
   -9.4805    3.9226  -14.0173 H   0  0  0  0  0  0  0  0  0  0  0  0
   -8.0674    6.9768  -11.3511 H   0  0  0  0  0  0  0  0  0  0  0  0
   -9.7863    6.8067  -11.8246 H   0  0  0  0  0  0  0  0  0  0  0  0
   -9.8703    3.5990  -11.5243 H   0  0  0  0  0  0  0  0  0  0  0  0
   -8.1598    3.4284  -11.0196 H   0  0  0  0  0  0  0  0  0  0  0  0
   -6.6502    4.0613  -14.6031 H   0  0  0  0  0  0  0  0  0  0  0  0
   -6.1042    5.7628  -14.5205 H   0  0  0  0  0  0  0  0  0  0  0  0
   -8.3919    5.2533   -6.7598 H   0  0  0  0  0  0  0  0  0  0  0  0
  -10.0026    4.9064   -6.0910 H   0  0  0  0  0  0  0  0  0  0  0  0
   -8.6070    3.8853   -5.6817 H   0  0  0  0  0  0  0  0  0  0  0  0
  -10.5631    1.7921   -8.1599 H   0  0  0  0  0  0  0  0  0  0  0  0
  -11.3137    2.8541   -6.9819 H   0  0  0  0  0  0  0  0  0  0  0  0
   -9.9536    1.8206   -6.4904 H   0  0  0  0  0  0  0  0  0  0  0  0
   -8.2978    2.3229   -9.1176 H   0  0  0  0  0  0  0  0  0  0  0  0
   -7.3948    3.7531   -8.5730 H   0  0  0  0  0  0  0  0  0  0  0  0
   -7.5861    2.3379   -7.5133 H   0  0  0  0  0  0  0  0  0  0  0  0
   -8.1637    7.2341  -13.9019 H   0  0  0  0  0  0  0  0  0  0  0  0
  1  2  1  0  0  0  0
  1  4  2  0  0  0  0
  2 17  2  0  0  0  0
  3  5  2  0  0  0  0
  3 17  1  0  0  0  0
  4  5  1  0  0  0  0
  4 11  1  0  0  0  0
  5 23  1  0  0  0  0
  6 18  1  0  0  0  0
  6 19  2  0  0  0  0
  6 22  1  0  0  0  0
  7 11  1  0  0  0  0
  7 12  1  0  0  0  0
  8 12  1  0  0  0  0
  8 18  1  0  0  0  0
  9 12  1  0  0  0  0
  9 18  1  0  0  0  0
 10 11  1  0  0  0  0
 10 20  1  0  0  0  0
 11 21  1  0  0  0  0
 12 20  1  0  0  0  0
 13 16  1  0  0  0  0
 14 16  1  0  0  0  0
 15 16  1  0  0  0  0
 16 22  1  0  0  0  0
  1 24  1  0  0  0  0
  2 25  1  0  0  0  0
  3 26  1  0  0  0  0
  7 27  1  0  0  0  0
  7 28  1  0  0  0  0
  8 29  1  0  0  0  0
  8 30  1  0  0  0  0
  9 31  1  0  0  0  0
  9 32  1  0  0  0  0
 10 33  1  0  0  0  0
 10 34  1  0  0  0  0
 13 35  1  0  0  0  0
 13 36  1  0  0  0  0
 13 37  1  0  0  0  0
 14 38  1  0  0  0  0
 14 39  1  0  0  0  0
 14 40  1  0  0  0  0
 15 41  1  0  0  0  0
 15 42  1  0  0  0  0
 15 43  1  0  0  0  0
 21 44  1  0  0  0  0
M  END
> <id>
EN300-7428895

> <smiles>
CC(C)(C)OC(=O)N1CC2(C1)CC(O)(CO2)C=3C=CN=CC3Br

> <IUPAC Name>
tert-butyl 7-(3-bromopyridin-4-yl)-7-hydroxy-5-oxa-2-azaspiro[3.4]octane-2-carboxylate

> <CAS>
2309447-67-2

> <URL>
https://www.enaminestore.com/catalog/EN300-7428895

> <ROCS_ShapeQuery>
_x0404_0B

> <ROCS_TanimotoCombo>
0.433 

> <ROCS_ShapeTanimoto>
0.368 

> <ROCS_ColorTanimoto>
0.066 

> <ROCS_RefTversky>
0.322 

> <ROCS_RefColorTversky>
0.073 

> <ROCS_RefTverskyCombo>
0.395 

> <ROCS_FitTversky>
1.618 

> <ROCS_FitColorTversky>
0.396 

> <ROCS_FitTverskyCombo>
2.015 

> <ROCS_ColorScore>
-5.267

> <ROCS_Overlap>
2152.009

> <ROCS_Rank>
364                 

$$$$
untitled-dbase-23324_906
  -OEChem-08222312023D

 60 61  0     1  0  0  0  0  0999 V2000
   -9.9890    2.6537   -7.7749 C   0  0  0  0  0  0  0  0  0  0  0  0
   -8.2051    5.2169  -14.9904 C   0  0  0  0  0  0  0  0  0  0  0  0
  -10.2734    5.6803   -9.7910 C   0  0  0  0  0  0  0  0  0  0  0  0
   -8.6693    4.4653  -11.3647 C   0  0  0  0  0  0  0  0  0  0  0  0
  -10.4626    4.9979   -8.4326 C   0  0  0  0  0  0  0  0  0  0  0  0
   -8.0961    4.1984   -8.3571 C   0  0  0  0  0  0  0  0  0  0  0  0
   -8.4717    6.5340  -12.4594 C   0  0  0  0  0  0  0  0  0  0  0  0
   -9.0541    5.1514  -12.6571 C   0  0  1  0  0  0  0  0  0  0  0  0
   -7.8382    5.4585   -9.1767 C   0  0  1  0  0  0  0  0  0  0  0  0
   -8.8295    5.5934  -10.3343 C   0  0  2  0  0  0  0  0  0  0  0  0
  -10.5977    0.8413   -5.6461 C   0  0  0  0  0  0  0  0  0  0  0  0
  -12.8848    1.8796   -5.6628 C   0  0  0  0  0  0  0  0  0  0  0  0
  -12.0496    0.6614   -7.6941 C   0  0  0  0  0  0  0  0  0  0  0  0
   -6.2357    6.0028  -16.9134 C   0  0  0  0  0  0  0  0  0  0  0  0
   -6.9130    3.9396  -18.1757 C   0  0  0  0  0  0  0  0  0  0  0  0
   -8.5873    5.7692  -17.7794 C   0  0  0  0  0  0  0  0  0  0  0  0
   -8.4456    3.0298  -13.7726 C   0  0  0  0  0  0  0  0  0  0  0  0
  -11.6571    1.5335   -6.5025 C   0  0  0  0  0  0  0  0  0  0  0  0
   -7.3758    5.0305  -17.2125 C   0  0  0  0  0  0  0  0  0  0  0  0
   -9.5273    3.8977   -8.2173 N   0  0  0  0  0  0  0  0  0  0  0  0
   -8.5622    4.4920  -13.8300 N   0  0  0  0  0  0  0  0  0  0  0  0
   -9.4606    1.5778   -8.0478 O   0  0  0  0  0  0  0  0  0  0  0  0
   -8.2752    6.4386  -15.1130 O   0  0  0  0  0  0  0  0  0  0  0  0
   -8.5431    6.8122  -11.0528 O   0  0  0  0  0  0  0  0  0  0  0  0
  -11.1121    2.7623   -6.9966 O   0  0  0  0  0  0  0  0  0  0  0  0
   -7.7623    4.3914  -15.9902 O   0  0  0  0  0  0  0  0  0  0  0  0
   -7.9870    6.5379   -8.3523 F   0  0  0  0  0  0  0  0  0  0  0  0
  -10.9716    5.2286  -10.5180 H   0  0  0  0  0  0  0  0  0  0  0  0
  -10.5787    6.7351   -9.6815 H   0  0  0  0  0  0  0  0  0  0  0  0
   -9.2825    3.5875  -11.1423 H   0  0  0  0  0  0  0  0  0  0  0  0
   -7.6227    4.1396  -11.4120 H   0  0  0  0  0  0  0  0  0  0  0  0
  -10.3056    5.7196   -7.6158 H   0  0  0  0  0  0  0  0  0  0  0  0
  -11.5008    4.6459   -8.3417 H   0  0  0  0  0  0  0  0  0  0  0  0
   -7.5483    3.3562   -8.8063 H   0  0  0  0  0  0  0  0  0  0  0  0
   -7.6824    4.3058   -7.3405 H   0  0  0  0  0  0  0  0  0  0  0  0
   -7.4146    6.5843  -12.7452 H   0  0  0  0  0  0  0  0  0  0  0  0
   -9.0179    7.3051  -13.0113 H   0  0  0  0  0  0  0  0  0  0  0  0
  -10.1445    5.2109  -12.7459 H   0  0  0  0  0  0  0  0  0  0  0  0
   -6.8154    5.4626   -9.5445 H   0  0  0  0  0  0  0  0  0  0  0  0
   -9.7148    0.5913   -6.2452 H   0  0  0  0  0  0  0  0  0  0  0  0
  -10.2821    1.4709   -4.8078 H   0  0  0  0  0  0  0  0  0  0  0  0
  -10.9769   -0.1053   -5.2445 H   0  0  0  0  0  0  0  0  0  0  0  0
  -13.6476    2.3764   -6.2732 H   0  0  0  0  0  0  0  0  0  0  0  0
  -12.6249    2.5814   -4.8621 H   0  0  0  0  0  0  0  0  0  0  0  0
  -13.3297    0.9872   -5.2107 H   0  0  0  0  0  0  0  0  0  0  0  0
  -12.8095    1.1577   -8.3085 H   0  0  0  0  0  0  0  0  0  0  0  0
  -11.1869    0.4335   -8.3286 H   0  0  0  0  0  0  0  0  0  0  0  0
  -12.4928   -0.2826   -7.3569 H   0  0  0  0  0  0  0  0  0  0  0  0
   -6.5639    6.7875  -16.2223 H   0  0  0  0  0  0  0  0  0  0  0  0
   -5.3736    5.4906  -16.4739 H   0  0  0  0  0  0  0  0  0  0  0  0
   -5.9070    6.5126  -17.8263 H   0  0  0  0  0  0  0  0  0  0  0  0
   -7.7279    3.2396  -18.3931 H   0  0  0  0  0  0  0  0  0  0  0  0
   -6.1054    3.3452  -17.7333 H   0  0  0  0  0  0  0  0  0  0  0  0
   -6.5559    4.3603  -19.1212 H   0  0  0  0  0  0  0  0  0  0  0  0
   -9.4053    5.0720  -17.9940 H   0  0  0  0  0  0  0  0  0  0  0  0
   -8.9561    6.5314  -17.0853 H   0  0  0  0  0  0  0  0  0  0  0  0
   -8.3379    6.2551  -18.7296 H   0  0  0  0  0  0  0  0  0  0  0  0
   -7.4466    2.7553  -13.4028 H   0  0  0  0  0  0  0  0  0  0  0  0
   -9.2113    2.6274  -13.0931 H   0  0  0  0  0  0  0  0  0  0  0  0
   -8.5918    2.6107  -14.7791 H   0  0  0  0  0  0  0  0  0  0  0  0
  1 20  1  0  0  0  0
  1 22  2  0  0  0  0
  1 25  1  0  0  0  0
  2 21  1  0  0  0  0
  2 23  2  0  0  0  0
  2 26  1  0  0  0  0
  3  5  1  0  0  0  0
  3 10  1  0  0  0  0
  4  8  1  0  0  0  0
  4 10  1  0  0  0  0
  5 20  1  0  0  0  0
  6  9  1  0  0  0  0
  6 20  1  0  0  0  0
  7  8  1  0  0  0  0
  7 24  1  0  0  0  0
  8 21  1  0  0  0  0
  9 10  1  0  0  0  0
  9 27  1  0  0  0  0
 10 24  1  0  0  0  0
 11 18  1  0  0  0  0
 12 18  1  0  0  0  0
 13 18  1  0  0  0  0
 14 19  1  0  0  0  0
 15 19  1  0  0  0  0
 16 19  1  0  0  0  0
 17 21  1  0  0  0  0
 18 25  1  0  0  0  0
 19 26  1  0  0  0  0
  3 28  1  0  0  0  0
  3 29  1  0  0  0  0
  4 30  1  0  0  0  0
  4 31  1  0  0  0  0
  5 32  1  0  0  0  0
  5 33  1  0  0  0  0
  6 34  1  0  0  0  0
  6 35  1  0  0  0  0
  7 36  1  0  0  0  0
  7 37  1  0  0  0  0
  8 38  1  0  0  0  0
  9 39  1  0  0  0  0
 11 40  1  0  0  0  0
 11 41  1  0  0  0  0
 11 42  1  0  0  0  0
 12 43  1  0  0  0  0
 12 44  1  0  0  0  0
 12 45  1  0  0  0  0
 13 46  1  0  0  0  0
 13 47  1  0  0  0  0
 13 48  1  0  0  0  0
 14 49  1  0  0  0  0
 14 50  1  0  0  0  0
 14 51  1  0  0  0  0
 15 52  1  0  0  0  0
 15 53  1  0  0  0  0
 15 54  1  0  0  0  0
 16 55  1  0  0  0  0
 16 56  1  0  0  0  0
 16 57  1  0  0  0  0
 17 58  1  0  0  0  0
 17 59  1  0  0  0  0
 17 60  1  0  0  0  0
M  END
> <id>
EN300-330983

> <smiles>
CN(C1COC2(C1)CCN(CC2F)C(=O)OC(C)(C)C)C(=O)OC(C)(C)C

> <MDLNUMBER>
MFCD30488875

> <IUPAC Name>
tert-butyl 3-{[(tert-butoxy)carbonyl](methyl)amino}-6-fluoro-1-oxa-8-azaspiro[4.5]decane-8-carboxylate

> <CAS>
2059965-76-1

> <URL>
https://www.enaminestore.com/catalog/EN300-330983

> <ROCS_ShapeQuery>
_x0404_0B

> <ROCS_TanimotoCombo>
0.433 

> <ROCS_ShapeTanimoto>
0.359 

> <ROCS_ColorTanimoto>
0.074 

> <ROCS_RefTversky>
0.323 

> <ROCS_RefColorTversky>
0.079 

> <ROCS_RefTverskyCombo>
0.402 

> <ROCS_FitTversky>
1.452 

> <ROCS_FitColorTversky>
0.545 

> <ROCS_FitTverskyCombo>
1.997 

> <ROCS_ColorScore>
-5.685

> <ROCS_Overlap>
2159.349

> <ROCS_Rank>
365                 

$$$$
untitled-dbase-157870_1620
  -OEChem-08222312023D

 43 45  0     0  0  0  0  0  0999 V2000
   -9.9143    4.2555  -17.8593 C   0  0  0  0  0  0  0  0  0  0  0  0
   -9.9553    4.7657  -16.5665 C   0  0  0  0  0  0  0  0  0  0  0  0
   -7.6128    4.8460  -17.9638 C   0  0  0  0  0  0  0  0  0  0  0  0
   -8.7246    4.2926  -18.5781 C   0  0  0  0  0  0  0  0  0  0  0  0
   -8.7883    5.2978  -16.0422 C   0  0  0  0  0  0  0  0  0  0  0  0
   -8.6895    5.2806   -9.1278 C   0  0  0  0  0  0  0  0  0  0  0  0
   -7.6694    5.2286  -13.5844 C   0  0  0  0  0  0  0  0  0  0  0  0
   -9.8166    5.4668  -13.5443 C   0  0  0  0  0  0  0  0  0  0  0  0
   -8.5879    6.3957  -11.4610 C   0  0  0  0  0  0  0  0  0  0  0  0
   -8.8268    4.2427  -11.4769 C   0  0  0  0  0  0  0  0  0  0  0  0
   -8.6985    5.9171  -14.5674 C   0  0  0  0  0  0  0  0  0  0  0  0
   -8.7258    5.3247  -12.5127 C   0  0  0  0  0  0  0  0  0  0  0  0
  -10.2921    2.9635   -8.6660 C   0  0  0  0  0  0  0  0  0  0  0  0
   -8.2974    2.0552   -7.4391 C   0  0  0  0  0  0  0  0  0  0  0  0
   -9.4325    4.1376   -6.6124 C   0  0  0  0  0  0  0  0  0  0  0  0
   -9.0531    3.3186   -7.8453 C   0  0  0  0  0  0  0  0  0  0  0  0
   -7.6140    5.3514  -16.7099 N   0  0  0  0  0  0  0  0  0  0  0  0
   -8.6994    5.3110  -10.4948 N   0  0  0  0  0  0  0  0  0  0  0  0
   -9.0916    6.1950   -8.4139 O   0  0  0  0  0  0  0  0  0  0  0  0
   -8.5320    7.3594  -14.6288 O   0  0  0  0  0  0  0  0  0  0  0  0
   -8.1755    4.1026   -8.6611 O   0  0  0  0  0  0  0  0  0  0  0  0
   -8.6280    3.6120  -20.3313 Br  0  0  0  0  0  0  0  0  0  0  0  0
  -10.8169    3.8327  -18.2924 H   0  0  0  0  0  0  0  0  0  0  0  0
  -10.8746    4.7447  -15.9919 H   0  0  0  0  0  0  0  0  0  0  0  0
   -6.6542    4.9053  -18.4703 H   0  0  0  0  0  0  0  0  0  0  0  0
   -7.3979    4.2041  -13.8662 H   0  0  0  0  0  0  0  0  0  0  0  0
   -6.7474    5.7906  -13.4057 H   0  0  0  0  0  0  0  0  0  0  0  0
  -10.5862    6.2162  -13.3346 H   0  0  0  0  0  0  0  0  0  0  0  0
  -10.3156    4.5273  -13.8117 H   0  0  0  0  0  0  0  0  0  0  0  0
   -7.6244    6.9095  -11.4086 H   0  0  0  0  0  0  0  0  0  0  0  0
   -9.4076    7.1152  -11.3845 H   0  0  0  0  0  0  0  0  0  0  0  0
   -9.7845    3.7198  -11.4114 H   0  0  0  0  0  0  0  0  0  0  0  0
   -7.9988    3.5302  -11.4358 H   0  0  0  0  0  0  0  0  0  0  0  0
  -10.8373    3.8676   -8.9596 H   0  0  0  0  0  0  0  0  0  0  0  0
  -10.0302    2.4060   -9.5712 H   0  0  0  0  0  0  0  0  0  0  0  0
  -10.9910    2.3586   -8.0771 H   0  0  0  0  0  0  0  0  0  0  0  0
   -7.4076    2.3053   -6.8500 H   0  0  0  0  0  0  0  0  0  0  0  0
   -7.9405    1.5129   -8.3221 H   0  0  0  0  0  0  0  0  0  0  0  0
   -8.9258    1.3808   -6.8485 H   0  0  0  0  0  0  0  0  0  0  0  0
   -8.5439    4.3924   -6.0236 H   0  0  0  0  0  0  0  0  0  0  0  0
   -9.9433    5.0663   -6.8867 H   0  0  0  0  0  0  0  0  0  0  0  0
  -10.0884    3.5622   -5.9491 H   0  0  0  0  0  0  0  0  0  0  0  0
   -7.7115    7.4966  -15.1135 H   0  0  0  0  0  0  0  0  0  0  0  0
  1  2  1  0  0  0  0
  1  4  2  0  0  0  0
  2  5  2  0  0  0  0
  3  4  1  0  0  0  0
  3 17  2  0  0  0  0
  4 22  1  0  0  0  0
  5 11  1  0  0  0  0
  5 17  1  0  0  0  0
  6 18  1  0  0  0  0
  6 19  2  0  0  0  0
  6 21  1  0  0  0  0
  7 11  1  0  0  0  0
  7 12  1  0  0  0  0
  8 11  1  0  0  0  0
  8 12  1  0  0  0  0
  9 12  1  0  0  0  0
  9 18  1  0  0  0  0
 10 12  1  0  0  0  0
 10 18  1  0  0  0  0
 11 20  1  0  0  0  0
 13 16  1  0  0  0  0
 14 16  1  0  0  0  0
 15 16  1  0  0  0  0
 16 21  1  0  0  0  0
  1 23  1  0  0  0  0
  2 24  1  0  0  0  0
  3 25  1  0  0  0  0
  7 26  1  0  0  0  0
  7 27  1  0  0  0  0
  8 28  1  0  0  0  0
  8 29  1  0  0  0  0
  9 30  1  0  0  0  0
  9 31  1  0  0  0  0
 10 32  1  0  0  0  0
 10 33  1  0  0  0  0
 13 34  1  0  0  0  0
 13 35  1  0  0  0  0
 13 36  1  0  0  0  0
 14 37  1  0  0  0  0
 14 38  1  0  0  0  0
 14 39  1  0  0  0  0
 15 40  1  0  0  0  0
 15 41  1  0  0  0  0
 15 42  1  0  0  0  0
 20 43  1  0  0  0  0
M  END
> <id>
EN300-7428220

> <smiles>
CC(C)(C)OC(=O)N1CC2(C1)CC(O)(C2)C=3C=CC(Br)=CN3

> <IUPAC Name>
tert-butyl 6-(5-bromopyridin-2-yl)-6-hydroxy-2-azaspiro[3.3]heptane-2-carboxylate

> <CAS>
2309449-47-4

> <URL>
https://www.enaminestore.com/catalog/EN300-7428220

> <ROCS_ShapeQuery>
_x0404_0B

> <ROCS_TanimotoCombo>
0.433 

> <ROCS_ShapeTanimoto>
0.366 

> <ROCS_ColorTanimoto>
0.067 

> <ROCS_RefTversky>
0.319 

> <ROCS_RefColorTversky>
0.074 

> <ROCS_RefTverskyCombo>
0.393 

> <ROCS_FitTversky>
1.668 

> <ROCS_FitColorTversky>
0.433 

> <ROCS_FitTverskyCombo>
2.100 

> <ROCS_ColorScore>
-5.345

> <ROCS_Overlap>
2128.653

> <ROCS_Rank>
366                 

$$$$
untitled-dbase-158429_0
  -OEChem-08222312023D

 39 42  0     1  0  0  0  0  0999 V2000
   -8.8665    5.5867  -10.2265 C   0  0  0  0  0  0  0  0  0  0  0  0
   -8.8877    2.8860  -11.0915 C   0  0  0  0  0  0  0  0  0  0  0  0
   -8.7591    5.2445  -11.5588 C   0  0  0  0  0  0  0  0  0  0  0  0
   -8.9792    4.5429   -9.2954 C   0  0  0  0  0  0  0  0  0  0  0  0
   -8.7649    3.9231  -11.9979 C   0  0  0  0  0  0  0  0  0  0  0  0
   -9.0131    3.1859   -9.7225 C   0  0  0  0  0  0  0  0  0  0  0  0
   -8.6215    6.1202  -12.7279 C   0  0  0  0  0  0  0  0  0  0  0  0
   -8.2970    5.1722  -18.0586 C   0  0  0  0  0  0  0  0  0  0  0  0
   -9.6556    5.2762  -15.9518 C   0  0  0  0  0  0  0  0  0  0  0  0
   -9.1108    4.8740   -7.8282 C   0  0  0  0  0  0  0  0  0  0  0  0
   -8.6286    3.8654  -13.4813 C   0  0  0  0  0  0  0  0  0  0  0  0
   -7.0671    5.5732  -17.2794 C   0  0  0  0  0  0  0  0  0  0  0  0
   -8.7141    3.6898   -6.9492 C   0  0  0  0  0  0  0  0  0  0  0  0
   -7.1553    5.1237  -15.8323 C   0  0  0  0  0  0  0  0  0  0  0  0
   -9.4202    2.4212   -7.4106 C   0  0  0  0  0  0  0  0  0  0  0  0
   -8.4090    5.7052  -15.1988 C   0  0  2  0  0  0  0  0  0  0  0  0
   -9.1230    2.1475   -8.8029 N   0  0  0  0  0  0  0  0  0  0  0  0
   -9.4714    5.0733  -17.3190 N   0  0  0  0  0  0  0  0  0  0  0  0
   -8.5487    5.2782  -13.8320 N   0  0  0  0  0  0  0  0  0  0  0  0
   -8.5842    7.3355  -12.6696 O   0  0  0  0  0  0  0  0  0  0  0  0
   -8.2569    4.9991  -19.2766 O   0  0  0  0  0  0  0  0  0  0  0  0
  -10.7607    5.1881  -15.4168 O   0  0  0  0  0  0  0  0  0  0  0  0
   -8.8590    6.6239   -9.9093 H   0  0  0  0  0  0  0  0  0  0  0  0
   -8.8926    1.8563  -11.4376 H   0  0  0  0  0  0  0  0  0  0  0  0
   -8.4773    5.7322   -7.5753 H   0  0  0  0  0  0  0  0  0  0  0  0
  -10.1523    5.1539   -7.6283 H   0  0  0  0  0  0  0  0  0  0  0  0
   -7.7071    3.3645  -13.7902 H   0  0  0  0  0  0  0  0  0  0  0  0
   -9.5086    3.4249  -13.9580 H   0  0  0  0  0  0  0  0  0  0  0  0
   -6.1913    5.1170  -17.7534 H   0  0  0  0  0  0  0  0  0  0  0  0
   -6.9630    6.6620  -17.3448 H   0  0  0  0  0  0  0  0  0  0  0  0
   -7.6273    3.5398   -6.9893 H   0  0  0  0  0  0  0  0  0  0  0  0
   -8.9679    3.9030   -5.9047 H   0  0  0  0  0  0  0  0  0  0  0  0
   -7.1800    4.0267  -15.7931 H   0  0  0  0  0  0  0  0  0  0  0  0
   -6.2623    5.4548  -15.2897 H   0  0  0  0  0  0  0  0  0  0  0  0
   -9.1009    1.5710   -6.7987 H   0  0  0  0  0  0  0  0  0  0  0  0
  -10.5045    2.5250   -7.2847 H   0  0  0  0  0  0  0  0  0  0  0  0
   -8.3718    6.8010  -15.2007 H   0  0  0  0  0  0  0  0  0  0  0  0
   -9.2098    1.1980   -9.1454 H   0  0  0  0  0  0  0  0  0  0  0  0
  -10.3041    4.8200  -17.8441 H   0  0  0  0  0  0  0  0  0  0  0  0
  1  3  2  0  0  0  0
  1  4  1  0  0  0  0
  2  5  2  0  0  0  0
  2  6  1  0  0  0  0
  3  5  1  0  0  0  0
  3  7  1  0  0  0  0
  4  6  2  0  0  0  0
  4 10  1  0  0  0  0
  5 11  1  0  0  0  0
  6 17  1  0  0  0  0
  7 19  1  0  0  0  0
  7 20  2  0  0  0  0
  8 12  1  0  0  0  0
  8 18  1  0  0  0  0
  8 21  2  0  0  0  0
  9 16  1  0  0  0  0
  9 18  1  0  0  0  0
  9 22  2  0  0  0  0
 10 13  1  0  0  0  0
 11 19  1  0  0  0  0
 12 14  1  0  0  0  0
 13 15  1  0  0  0  0
 14 16  1  0  0  0  0
 15 17  1  0  0  0  0
 16 19  1  0  0  0  0
  1 23  1  0  0  0  0
  2 24  1  0  0  0  0
 10 25  1  0  0  0  0
 10 26  1  0  0  0  0
 11 27  1  0  0  0  0
 11 28  1  0  0  0  0
 12 29  1  0  0  0  0
 12 30  1  0  0  0  0
 13 31  1  0  0  0  0
 13 32  1  0  0  0  0
 14 33  1  0  0  0  0
 14 34  1  0  0  0  0
 15 35  1  0  0  0  0
 15 36  1  0  0  0  0
 16 37  1  0  0  0  0
 17 38  1  0  0  0  0
 18 39  1  0  0  0  0
M  END
> <id>
EN300-39872082

> <smiles>
O=C1N(CC=2C=C3NCCCC3=CC12)C4CCC(=O)NC4=O

> <IUPAC Name>
3-{6-oxo-1H,2H,3H,4H,6H,7H,8H-pyrrolo[3,4-g]quinolin-7-yl}piperidine-2,6-dione

> <URL>
https://www.enaminestore.com/catalog/EN300-39872082

> <ROCS_ShapeQuery>
_x0404_0B

> <ROCS_TanimotoCombo>
0.433 

> <ROCS_ShapeTanimoto>
0.371 

> <ROCS_ColorTanimoto>
0.062 

> <ROCS_RefTversky>
0.324 

> <ROCS_RefColorTversky>
0.068 

> <ROCS_RefTverskyCombo>
0.392 

> <ROCS_FitTversky>
1.639 

> <ROCS_FitColorTversky>
0.400 

> <ROCS_FitTverskyCombo>
2.039 

> <ROCS_ColorScore>
-4.942

> <ROCS_Overlap>
2163.509

> <ROCS_Rank>
367                 

$$$$
untitled-dbase-103878_1225
  -OEChem-08222312023D

 42 44  0     0  0  0  0  0  0999 V2000
   -9.5343    5.4336  -16.0577 C   0  0  0  0  0  0  0  0  0  0  0  0
   -7.2520    6.1768  -16.2105 C   0  0  0  0  0  0  0  0  0  0  0  0
   -9.3335    4.7468  -17.2442 C   0  0  0  0  0  0  0  0  0  0  0  0
   -8.4687    6.1599  -15.5377 C   0  0  0  0  0  0  0  0  0  0  0  0
   -7.1533    5.4566  -17.3900 C   0  0  0  0  0  0  0  0  0  0  0  0
   -8.6284    6.9063  -14.2826 C   0  0  0  0  0  0  0  0  0  0  0  0
   -7.8117    3.5942   -8.4837 C   0  0  0  0  0  0  0  0  0  0  0  0
  -10.3273    3.8735   -8.8374 C   0  0  0  0  0  0  0  0  0  0  0  0
   -7.7837    4.9588   -9.1610 C   0  0  0  0  0  0  0  0  0  0  0  0
   -9.8855    4.0362  -10.2919 C   0  0  0  0  0  0  0  0  0  0  0  0
   -7.8193    4.5730  -11.6692 C   0  0  0  0  0  0  0  0  0  0  0  0
   -9.1310    6.4606  -10.6648 C   0  0  0  0  0  0  0  0  0  0  0  0
   -8.5413    4.8037  -12.9937 C   0  0  0  0  0  0  0  0  0  0  0  0
   -9.7859    6.7146  -12.0249 C   0  0  0  0  0  0  0  0  0  0  0  0
   -9.2180    3.2521   -7.9836 C   0  0  0  0  0  0  0  0  0  0  0  0
   -8.6673    4.9972  -10.4422 C   0  0  0  0  0  0  0  0  0  0  0  0
   -8.1662    4.7395  -17.9262 N   0  0  0  0  0  0  0  0  0  0  0  0
   -8.9690    6.1950  -13.1272 N   0  0  0  0  0  0  0  0  0  0  0  0
   -8.4385    8.1201  -14.3470 O   0  0  0  0  0  0  0  0  0  0  0  0
   -9.3737    1.8343   -7.9816 O   0  0  0  0  0  0  0  0  0  0  0  0
   -5.6912    5.4194  -18.2870 Cl  0  0  0  0  0  0  0  0  0  0  0  0
  -10.4967    5.3992  -15.5580 H   0  0  0  0  0  0  0  0  0  0  0  0
   -6.4075    6.7374  -15.8210 H   0  0  0  0  0  0  0  0  0  0  0  0
  -10.1329    4.1652  -17.6913 H   0  0  0  0  0  0  0  0  0  0  0  0
   -7.4579    2.8146   -9.1660 H   0  0  0  0  0  0  0  0  0  0  0  0
   -7.1150    3.5821   -7.6390 H   0  0  0  0  0  0  0  0  0  0  0  0
  -10.5993    4.8493   -8.4233 H   0  0  0  0  0  0  0  0  0  0  0  0
  -11.2341    3.2653   -8.7734 H   0  0  0  0  0  0  0  0  0  0  0  0
   -8.1445    5.7080   -8.4520 H   0  0  0  0  0  0  0  0  0  0  0  0
   -6.7528    5.2202   -9.4052 H   0  0  0  0  0  0  0  0  0  0  0  0
   -9.6693    3.0517  -10.7050 H   0  0  0  0  0  0  0  0  0  0  0  0
  -10.7277    4.4375  -10.8622 H   0  0  0  0  0  0  0  0  0  0  0  0
   -7.5267    3.5236  -11.6069 H   0  0  0  0  0  0  0  0  0  0  0  0
   -6.8901    5.1526  -11.6825 H   0  0  0  0  0  0  0  0  0  0  0  0
   -8.2660    7.1380  -10.5692 H   0  0  0  0  0  0  0  0  0  0  0  0
   -9.8328    6.7614   -9.8708 H   0  0  0  0  0  0  0  0  0  0  0  0
   -7.8824    4.5074  -13.8141 H   0  0  0  0  0  0  0  0  0  0  0  0
   -9.4379    4.1786  -13.0664 H   0  0  0  0  0  0  0  0  0  0  0  0
  -10.7655    6.2285  -12.0877 H   0  0  0  0  0  0  0  0  0  0  0  0
   -9.9559    7.7888  -12.1515 H   0  0  0  0  0  0  0  0  0  0  0  0
   -9.3245    3.5912   -6.9407 H   0  0  0  0  0  0  0  0  0  0  0  0
   -8.6944    1.4810   -7.3856 H   0  0  0  0  0  0  0  0  0  0  0  0
  1  3  1  0  0  0  0
  1  4  2  0  0  0  0
  2  4  1  0  0  0  0
  2  5  2  0  0  0  0
  3 17  2  0  0  0  0
  4  6  1  0  0  0  0
  5 17  1  0  0  0  0
  5 21  1  0  0  0  0
  6 18  1  0  0  0  0
  6 19  2  0  0  0  0
  7  9  1  0  0  0  0
  7 15  1  0  0  0  0
  8 10  1  0  0  0  0
  8 15  1  0  0  0  0
  9 16  1  0  0  0  0
 10 16  1  0  0  0  0
 11 13  1  0  0  0  0
 11 16  1  0  0  0  0
 12 14  1  0  0  0  0
 12 16  1  0  0  0  0
 13 18  1  0  0  0  0
 14 18  1  0  0  0  0
 15 20  1  0  0  0  0
  1 22  1  0  0  0  0
  2 23  1  0  0  0  0
  3 24  1  0  0  0  0
  7 25  1  0  0  0  0
  7 26  1  0  0  0  0
  8 27  1  0  0  0  0
  8 28  1  0  0  0  0
  9 29  1  0  0  0  0
  9 30  1  0  0  0  0
 10 31  1  0  0  0  0
 10 32  1  0  0  0  0
 11 33  1  0  0  0  0
 11 34  1  0  0  0  0
 12 35  1  0  0  0  0
 12 36  1  0  0  0  0
 13 37  1  0  0  0  0
 13 38  1  0  0  0  0
 14 39  1  0  0  0  0
 14 40  1  0  0  0  0
 15 41  1  0  0  0  0
 20 42  1  0  0  0  0
M  END
> <id>
EN300-26585413

> <smiles>
OC1CCC2(CC1)CCN(CC2)C(=O)C=3C=CN=C(Cl)C3

> <IUPAC Name>
3-(2-chloropyridine-4-carbonyl)-3-azaspiro[5.5]undecan-9-ol

> <CAS>
2094514-24-4

> <URL>
https://www.enaminestore.com/catalog/EN300-26585413

> <ROCS_ShapeQuery>
_x0404_0B

> <ROCS_TanimotoCombo>
0.433 

> <ROCS_ShapeTanimoto>
0.353 

> <ROCS_ColorTanimoto>
0.080 

> <ROCS_RefTversky>
0.308 

> <ROCS_RefColorTversky>
0.085 

> <ROCS_RefTverskyCombo>
0.394 

> <ROCS_FitTversky>
1.682 

> <ROCS_FitColorTversky>
0.589 

> <ROCS_FitTverskyCombo>
2.271 

> <ROCS_ColorScore>
-6.142

> <ROCS_Overlap>
2057.883

> <ROCS_Rank>
368                 

$$$$
untitled-dbase-89422_77
  -OEChem-08222312023D

 44 46  0     1  0  0  0  0  0999 V2000
   -9.5873    4.9036  -17.7064 C   0  0  0  0  0  0  0  0  0  0  0  0
   -7.3852    5.2437  -15.9305 C   0  0  0  0  0  0  0  0  0  0  0  0
   -8.2742    4.9893  -18.1872 C   0  0  0  0  0  0  0  0  0  0  0  0
   -9.7916    4.9900  -16.3215 C   0  0  0  0  0  0  0  0  0  0  0  0
   -8.7005    5.1556  -15.4795 C   0  0  0  0  0  0  0  0  0  0  0  0
   -7.1949    5.1562  -17.3141 C   0  0  0  0  0  0  0  0  0  0  0  0
   -9.0187    5.0124   -9.2296 C   0  0  0  0  0  0  0  0  0  0  0  0
   -8.4183    6.8059  -12.3840 C   0  0  0  0  0  0  0  0  0  0  0  0
   -8.1180    6.6210  -10.9047 C   0  0  0  0  0  0  0  0  0  0  0  0
   -9.2817    4.6830  -11.7219 C   0  0  0  0  0  0  0  0  0  0  0  0
   -8.5746    5.3647  -12.9039 C   0  0  1  0  0  0  0  0  0  0  0  0
  -10.6125    3.6978   -7.2546 C   0  0  0  0  0  0  0  0  0  0  0  0
   -9.3258    1.6273   -7.8602 C   0  0  0  0  0  0  0  0  0  0  0  0
   -8.1225    3.6108   -6.8980 C   0  0  0  0  0  0  0  0  0  0  0  0
   -8.0689    4.8952  -19.6668 C   0  0  0  0  0  0  0  0  0  0  0  0
   -9.2846    3.1517   -7.7774 C   0  0  0  0  0  0  0  0  0  0  0  0
  -10.9389    4.9400  -15.5746 N   0  0  0  0  0  0  0  0  0  0  0  0
  -10.6033    5.0686  -14.2955 N   0  0  0  0  0  0  0  0  0  0  0  0
   -9.2674    5.1971  -14.2386 N   0  0  0  0  0  0  0  0  0  0  0  0
   -8.8194    5.4034  -10.5425 N   0  0  0  0  0  0  0  0  0  0  0  0
   -9.1324    5.7923   -8.2867 O   0  0  0  0  0  0  0  0  0  0  0  0
   -9.0774    3.6503   -9.1037 O   0  0  0  0  0  0  0  0  0  0  0  0
   -9.2287    4.7334  -20.3659 F   0  0  0  0  0  0  0  0  0  0  0  0
   -7.4759    6.0003  -20.2026 F   0  0  0  0  0  0  0  0  0  0  0  0
   -7.2760    3.8430  -20.0157 F   0  0  0  0  0  0  0  0  0  0  0  0
   -5.5767    5.2609  -17.9158 Cl  0  0  0  0  0  0  0  0  0  0  0  0
  -10.4265    4.7728  -18.3826 H   0  0  0  0  0  0  0  0  0  0  0  0
   -6.5584    5.3735  -15.2405 H   0  0  0  0  0  0  0  0  0  0  0  0
   -9.3498    7.3712  -12.5147 H   0  0  0  0  0  0  0  0  0  0  0  0
   -7.6208    7.3449  -12.9049 H   0  0  0  0  0  0  0  0  0  0  0  0
   -7.0495    6.4548  -10.7293 H   0  0  0  0  0  0  0  0  0  0  0  0
   -8.4501    7.4616  -10.2885 H   0  0  0  0  0  0  0  0  0  0  0  0
  -10.3726    4.7813  -11.7705 H   0  0  0  0  0  0  0  0  0  0  0  0
   -9.0325    3.6197  -11.6446 H   0  0  0  0  0  0  0  0  0  0  0  0
   -7.5639    4.9015  -13.0535 H   0  0  0  0  0  0  0  0  0  0  0  0
  -10.5870    4.7917   -7.1937 H   0  0  0  0  0  0  0  0  0  0  0  0
  -11.4499    3.4047   -7.8962 H   0  0  0  0  0  0  0  0  0  0  0  0
  -10.8114    3.3363   -6.2392 H   0  0  0  0  0  0  0  0  0  0  0  0
   -8.3751    1.2311   -8.2348 H   0  0  0  0  0  0  0  0  0  0  0  0
  -10.0974    1.2954   -8.5642 H   0  0  0  0  0  0  0  0  0  0  0  0
   -9.5293    1.1751   -6.8842 H   0  0  0  0  0  0  0  0  0  0  0  0
   -7.1700    3.2192   -7.2728 H   0  0  0  0  0  0  0  0  0  0  0  0
   -8.0549    4.7028   -6.8567 H   0  0  0  0  0  0  0  0  0  0  0  0
   -8.2329    3.2299   -5.8762 H   0  0  0  0  0  0  0  0  0  0  0  0
  1  3  1  0  0  0  0
  1  4  2  0  0  0  0
  2  5  2  0  0  0  0
  2  6  1  0  0  0  0
  3  6  2  0  0  0  0
  3 15  1  0  0  0  0
  4  5  1  0  0  0  0
  4 17  1  0  0  0  0
  5 19  1  0  0  0  0
  6 26  1  0  0  0  0
  7 20  1  0  0  0  0
  7 21  2  0  0  0  0
  7 22  1  0  0  0  0
  8  9  1  0  0  0  0
  8 11  1  0  0  0  0
  9 20  1  0  0  0  0
 10 11  1  0  0  0  0
 10 20  1  0  0  0  0
 11 19  1  0  0  0  0
 12 16  1  0  0  0  0
 13 16  1  0  0  0  0
 14 16  1  0  0  0  0
 15 23  1  0  0  0  0
 15 24  1  0  0  0  0
 15 25  1  0  0  0  0
 16 22  1  0  0  0  0
 17 18  2  0  0  0  0
 18 19  1  0  0  0  0
  1 27  1  0  0  0  0
  2 28  1  0  0  0  0
  8 29  1  0  0  0  0
  8 30  1  0  0  0  0
  9 31  1  0  0  0  0
  9 32  1  0  0  0  0
 10 33  1  0  0  0  0
 10 34  1  0  0  0  0
 11 35  1  0  0  0  0
 12 36  1  0  0  0  0
 12 37  1  0  0  0  0
 12 38  1  0  0  0  0
 13 39  1  0  0  0  0
 13 40  1  0  0  0  0
 13 41  1  0  0  0  0
 14 42  1  0  0  0  0
 14 43  1  0  0  0  0
 14 44  1  0  0  0  0
M  END
> <id>
EN300-6750521

> <smiles>
CC(C)(C)OC(=O)N1CCC(C1)N2N=NC=3C=C(C(Cl)=CC23)C(F)(F)F

> <IUPAC Name>
tert-butyl 3-[6-chloro-5-(trifluoromethyl)-1H-1,2,3-benzotriazol-1-yl]pyrrolidine-1-carboxylate

> <CAS>
2287334-67-0

> <URL>
https://www.enaminestore.com/catalog/EN300-6750521

> <ROCS_ShapeQuery>
_x0404_0B

> <ROCS_TanimotoCombo>
0.433 

> <ROCS_ShapeTanimoto>
0.385 

> <ROCS_ColorTanimoto>
0.048 

> <ROCS_RefTversky>
0.340 

> <ROCS_RefColorTversky>
0.052 

> <ROCS_RefTverskyCombo>
0.392 

> <ROCS_FitTversky>
1.534 

> <ROCS_FitColorTversky>
0.351 

> <ROCS_FitTverskyCombo>
1.885 

> <ROCS_ColorScore>
-3.778

> <ROCS_Overlap>
2270.396

> <ROCS_Rank>
369                 

$$$$
untitled-dbase-156663_11
  -OEChem-08222312023D

 34 35  0     0  0  0  0  0  0999 V2000
   -9.0166    4.0488  -11.5915 C   0  0  0  0  0  0  0  0  0  0  0  0
   -8.6193    6.7347  -10.9256 C   0  0  0  0  0  0  0  0  0  0  0  0
   -9.0382    4.4570  -10.2548 C   0  0  0  0  0  0  0  0  0  0  0  0
   -8.8402    5.8028   -9.9061 C   0  0  0  0  0  0  0  0  0  0  0  0
   -8.7953    4.9918  -12.5939 C   0  0  0  0  0  0  0  0  0  0  0  0
   -8.5971    6.3316  -12.2624 C   0  0  0  0  0  0  0  0  0  0  0  0
   -9.0645    5.3531   -7.6588 C   0  0  0  0  0  0  0  0  0  0  0  0
   -9.2724    3.4721   -9.1744 C   0  0  0  0  0  0  0  0  0  0  0  0
   -8.5692    5.3710  -15.0670 C   0  0  0  0  0  0  0  0  0  0  0  0
   -7.0549    5.8860  -17.4378 C   0  0  0  0  0  0  0  0  0  0  0  0
   -8.5297    4.1711  -18.5304 C   0  0  0  0  0  0  0  0  0  0  0  0
   -9.5349    6.2798  -17.6078 C   0  0  0  0  0  0  0  0  0  0  0  0
   -8.4360    5.2322  -17.4360 C   0  0  0  0  0  0  0  0  0  0  0  0
   -8.8570    6.2450   -8.5688 N   0  0  0  0  0  0  0  0  0  0  0  0
   -9.2683    4.0141   -7.8999 N   0  0  0  0  0  0  0  0  0  0  0  0
   -8.7724    4.5920  -13.9308 N   0  0  0  0  0  0  0  0  0  0  0  0
   -9.4522    2.2847   -9.4175 O   0  0  0  0  0  0  0  0  0  0  0  0
   -8.3686    6.5786  -15.1100 O   0  0  0  0  0  0  0  0  0  0  0  0
   -8.6267    4.5732  -16.1786 O   0  0  0  0  0  0  0  0  0  0  0  0
   -8.3837    7.2447  -13.2205 F   0  0  0  0  0  0  0  0  0  0  0  0
   -9.1702    3.0053  -11.8562 H   0  0  0  0  0  0  0  0  0  0  0  0
   -8.4627    7.7834  -10.6850 H   0  0  0  0  0  0  0  0  0  0  0  0
   -9.0932    5.6136   -6.5900 H   0  0  0  0  0  0  0  0  0  0  0  0
   -6.9836    6.6482  -16.6537 H   0  0  0  0  0  0  0  0  0  0  0  0
   -6.2599    5.1498  -17.2805 H   0  0  0  0  0  0  0  0  0  0  0  0
   -6.8671    6.4006  -18.3871 H   0  0  0  0  0  0  0  0  0  0  0  0
   -9.5190    3.6994  -18.5328 H   0  0  0  0  0  0  0  0  0  0  0  0
   -7.8049    3.3673  -18.3578 H   0  0  0  0  0  0  0  0  0  0  0  0
   -8.3460    4.5965  -19.5223 H   0  0  0  0  0  0  0  0  0  0  0  0
  -10.5257    5.8111  -17.6066 H   0  0  0  0  0  0  0  0  0  0  0  0
   -9.5061    7.0291  -16.8101 H   0  0  0  0  0  0  0  0  0  0  0  0
   -9.4369    6.7930  -18.5713 H   0  0  0  0  0  0  0  0  0  0  0  0
   -9.4226    3.3960   -7.1087 H   0  0  0  0  0  0  0  0  0  0  0  0
   -8.9256    3.5923  -14.0986 H   0  0  0  0  0  0  0  0  0  0  0  0
  1  3  1  0  0  0  0
  1  5  2  0  0  0  0
  2  4  1  0  0  0  0
  2  6  2  0  0  0  0
  3  4  2  0  0  0  0
  3  8  1  0  0  0  0
  4 14  1  0  0  0  0
  5  6  1  0  0  0  0
  5 16  1  0  0  0  0
  6 20  1  0  0  0  0
  7 14  2  0  0  0  0
  7 15  1  0  0  0  0
  8 15  1  0  0  0  0
  8 17  2  0  0  0  0
  9 16  1  0  0  0  0
  9 18  2  0  0  0  0
  9 19  1  0  0  0  0
 10 13  1  0  0  0  0
 11 13  1  0  0  0  0
 12 13  1  0  0  0  0
 13 19  1  0  0  0  0
  1 21  1  0  0  0  0
  2 22  1  0  0  0  0
  7 23  1  0  0  0  0
 10 24  1  0  0  0  0
 10 25  1  0  0  0  0
 10 26  1  0  0  0  0
 11 27  1  0  0  0  0
 11 28  1  0  0  0  0
 11 29  1  0  0  0  0
 12 30  1  0  0  0  0
 12 31  1  0  0  0  0
 12 32  1  0  0  0  0
 15 33  1  0  0  0  0
 16 34  1  0  0  0  0
M  END
> <id>
EN300-33050484

> <smiles>
CC(C)(C)OC(=O)NC=1C=C2C(=O)NC=NC2=CC1F

> <IUPAC Name>
tert-butyl N-(7-fluoro-4-oxo-3,4-dihydroquinazolin-6-yl)carbamate

> <CAS>
2694731-41-2

> <URL>
https://www.enaminestore.com/catalog/EN300-33050484

> <ROCS_ShapeQuery>
_x0404_0B

> <ROCS_TanimotoCombo>
0.433 

> <ROCS_ShapeTanimoto>
0.351 

> <ROCS_ColorTanimoto>
0.082 

> <ROCS_RefTversky>
0.307 

> <ROCS_RefColorTversky>
0.088 

> <ROCS_RefTverskyCombo>
0.395 

> <ROCS_FitTversky>
1.684 

> <ROCS_FitColorTversky>
0.556 

> <ROCS_FitTverskyCombo>
2.240 

> <ROCS_ColorScore>
-6.325

> <ROCS_Overlap>
2049.163

> <ROCS_Rank>
370                 

$$$$
untitled-dbase-39094_292
  -OEChem-08222312023D

 55 57  0     1  0  0  0  0  0999 V2000
   -9.1100    5.3522   -7.9955 C   0  0  0  0  0  0  0  0  0  0  0  0
   -9.1097    3.7850   -9.8270 C   0  0  0  0  0  0  0  0  0  0  0  0
   -9.2083    4.0446   -8.4615 C   0  0  0  0  0  0  0  0  0  0  0  0
   -8.8133    6.1533  -10.2756 C   0  0  0  0  0  0  0  0  0  0  0  0
   -8.9106    6.3992   -8.8957 C   0  0  0  0  0  0  0  0  0  0  0  0
   -8.9216    4.8338  -10.7335 C   0  0  0  0  0  0  0  0  0  0  0  0
   -9.3952    2.9484   -7.5240 C   0  0  0  0  0  0  0  0  0  0  0  0
   -8.8430    5.6222  -16.7205 C   0  0  0  0  0  0  0  0  0  0  0  0
  -10.4220    5.7200  -13.3846 C   0  0  0  0  0  0  0  0  0  0  0  0
   -8.1621    6.7685  -12.5990 C   0  0  0  0  0  0  0  0  0  0  0  0
  -10.3834    6.2321  -14.8151 C   0  0  0  0  0  0  0  0  0  0  0  0
   -8.3838    4.9780  -14.3541 C   0  0  0  0  0  0  0  0  0  0  0  0
   -8.5808    7.3022  -11.2249 C   0  0  1  0  0  0  0  0  0  0  0  0
   -8.9394    5.5074  -13.0179 C   0  0  2  0  0  0  0  0  0  0  0  0
   -8.7653    7.7694   -8.3127 C   0  0  0  0  0  0  0  0  0  0  0  0
   -7.5267    6.8623  -18.9341 C   0  0  0  0  0  0  0  0  0  0  0  0
   -5.5019    5.5562  -18.2246 C   0  0  0  0  0  0  0  0  0  0  0  0
   -7.5791    4.3461  -18.9520 C   0  0  0  0  0  0  0  0  0  0  0  0
   -9.6299    2.4064   -5.2123 C   0  0  0  0  0  0  0  0  0  0  0  0
   -7.0284    5.5884  -18.2532 C   0  0  0  0  0  0  0  0  0  0  0  0
   -9.1922    5.6168  -15.3811 N   0  0  0  0  0  0  0  0  0  0  0  0
   -9.7597    8.1639  -11.3309 N   0  0  0  0  0  0  0  0  0  0  0  0
   -9.4926    1.7576   -7.8490 O   0  0  0  0  0  0  0  0  0  0  0  0
   -9.6520    5.6514  -17.6450 O   0  0  0  0  0  0  0  0  0  0  0  0
   -8.8185    4.4631  -12.0475 O   0  0  0  0  0  0  0  0  0  0  0  0
   -9.4493    3.3951   -6.2318 O   0  0  0  0  0  0  0  0  0  0  0  0
   -7.4855    5.5884  -16.8961 O   0  0  0  0  0  0  0  0  0  0  0  0
   -9.1806    5.5555   -6.9298 H   0  0  0  0  0  0  0  0  0  0  0  0
   -9.1653    2.7606  -10.1910 H   0  0  0  0  0  0  0  0  0  0  0  0
  -10.8804    6.4796  -12.7351 H   0  0  0  0  0  0  0  0  0  0  0  0
  -11.0108    4.7967  -13.3118 H   0  0  0  0  0  0  0  0  0  0  0  0
   -8.3357    7.5452  -13.3718 H   0  0  0  0  0  0  0  0  0  0  0  0
   -7.0727    6.5708  -12.6118 H   0  0  0  0  0  0  0  0  0  0  0  0
  -11.2440    5.8846  -15.3948 H   0  0  0  0  0  0  0  0  0  0  0  0
  -10.3268    7.3210  -14.8826 H   0  0  0  0  0  0  0  0  0  0  0  0
   -7.3446    5.2898  -14.5201 H   0  0  0  0  0  0  0  0  0  0  0  0
   -8.4519    3.8890  -14.4614 H   0  0  0  0  0  0  0  0  0  0  0  0
   -7.7581    7.9027  -10.7916 H   0  0  0  0  0  0  0  0  0  0  0  0
   -7.7118    7.9780   -8.0991 H   0  0  0  0  0  0  0  0  0  0  0  0
   -9.1428    8.5324   -9.0027 H   0  0  0  0  0  0  0  0  0  0  0  0
   -9.3386    7.8636   -7.3835 H   0  0  0  0  0  0  0  0  0  0  0  0
   -8.6221    6.8892  -18.9566 H   0  0  0  0  0  0  0  0  0  0  0  0
   -7.1673    7.7606  -18.4216 H   0  0  0  0  0  0  0  0  0  0  0  0
   -7.1950    6.9032  -19.9779 H   0  0  0  0  0  0  0  0  0  0  0  0
   -5.1400    4.6438  -17.7370 H   0  0  0  0  0  0  0  0  0  0  0  0
   -5.1047    6.3957  -17.6426 H   0  0  0  0  0  0  0  0  0  0  0  0
   -5.0779    5.6020  -19.2329 H   0  0  0  0  0  0  0  0  0  0  0  0
   -7.2218    3.4321  -18.4638 H   0  0  0  0  0  0  0  0  0  0  0  0
   -8.6738    4.3338  -18.9495 H   0  0  0  0  0  0  0  0  0  0  0  0
   -7.2327    4.2975  -19.9907 H   0  0  0  0  0  0  0  0  0  0  0  0
   -9.6558    2.8916   -4.2336 H   0  0  0  0  0  0  0  0  0  0  0  0
   -8.8088    1.6863   -5.2523 H   0  0  0  0  0  0  0  0  0  0  0  0
  -10.5758    1.8873   -5.3842 H   0  0  0  0  0  0  0  0  0  0  0  0
   -9.9896    8.4772  -10.4201 H   0  0  0  0  0  0  0  0  0  0  0  0
   -9.5268    8.9245  -11.9208 H   0  0  0  0  0  0  0  0  0  0  0  0
  1  3  2  0  0  0  0
  1  5  1  0  0  0  0
  2  3  1  0  0  0  0
  2  6  2  0  0  0  0
  3  7  1  0  0  0  0
  4  5  2  0  0  0  0
  4  6  1  0  0  0  0
  4 13  1  0  0  0  0
  5 15  1  0  0  0  0
  6 25  1  0  0  0  0
  7 23  2  0  0  0  0
  7 26  1  0  0  0  0
  8 21  1  0  0  0  0
  8 24  2  0  0  0  0
  8 27  1  0  0  0  0
  9 11  1  0  0  0  0
  9 14  1  0  0  0  0
 10 13  1  0  0  0  0
 10 14  1  0  0  0  0
 11 21  1  0  0  0  0
 12 14  1  0  0  0  0
 12 21  1  0  0  0  0
 13 22  1  0  0  0  0
 14 25  1  0  0  0  0
 16 20  1  0  0  0  0
 17 20  1  0  0  0  0
 18 20  1  0  0  0  0
 19 26  1  0  0  0  0
 20 27  1  0  0  0  0
  1 28  1  0  0  0  0
  2 29  1  0  0  0  0
  9 30  1  0  0  0  0
  9 31  1  0  0  0  0
 10 32  1  0  0  0  0
 10 33  1  0  0  0  0
 11 34  1  0  0  0  0
 11 35  1  0  0  0  0
 12 36  1  0  0  0  0
 12 37  1  0  0  0  0
 13 38  1  0  0  0  0
 15 39  1  0  0  0  0
 15 40  1  0  0  0  0
 15 41  1  0  0  0  0
 16 42  1  0  0  0  0
 16 43  1  0  0  0  0
 16 44  1  0  0  0  0
 17 45  1  0  0  0  0
 17 46  1  0  0  0  0
 17 47  1  0  0  0  0
 18 48  1  0  0  0  0
 18 49  1  0  0  0  0
 18 50  1  0  0  0  0
 19 51  1  0  0  0  0
 19 52  1  0  0  0  0
 19 53  1  0  0  0  0
 22 54  1  0  0  0  0
 22 55  1  0  0  0  0
M  END
> <id>
EN300-1129081

> <smiles>
COC(=O)C=1C=C(C)C=2C(N)CC3(CCN(C3)C(=O)OC(C)(C)C)OC2C1

> <IUPAC Name>
1'-tert-butyl 7-methyl 4-amino-5-methyl-3,4-dihydrospiro[1-benzopyran-2,3'-pyrrolidine]-1',7-dicarboxylate

> <CAS>
2137566-90-4

> <URL>
https://www.enaminestore.com/catalog/EN300-1129081

> <ROCS_ShapeQuery>
_x0404_0B

> <ROCS_TanimotoCombo>
0.433 

> <ROCS_ShapeTanimoto>
0.391 

> <ROCS_ColorTanimoto>
0.042 

> <ROCS_RefTversky>
0.345 

> <ROCS_RefColorTversky>
0.047 

> <ROCS_RefTverskyCombo>
0.391 

> <ROCS_FitTversky>
1.526 

> <ROCS_FitColorTversky>
0.275 

> <ROCS_FitTverskyCombo>
1.801 

> <ROCS_ColorScore>
-3.390

> <ROCS_Overlap>
2303.933

> <ROCS_Rank>
371                 

$$$$
untitled-dbase-106942_2013
  -OEChem-08222312023D

 44 46  0     0  0  0  0  0  0999 V2000
   -9.5831    3.6820  -17.7473 C   0  0  0  0  0  0  0  0  0  0  0  0
   -9.6063    4.2491  -16.4732 C   0  0  0  0  0  0  0  0  0  0  0  0
   -8.6163    4.0802  -18.6705 C   0  0  0  0  0  0  0  0  0  0  0  0
   -7.6959    5.6129  -17.0455 C   0  0  0  0  0  0  0  0  0  0  0  0
   -8.6628    5.2146  -16.1223 C   0  0  0  0  0  0  0  0  0  0  0  0
   -7.6727    5.0457  -18.3196 C   0  0  0  0  0  0  0  0  0  0  0  0
   -8.6381    5.1990   -9.2621 C   0  0  0  0  0  0  0  0  0  0  0  0
   -7.8326    5.1289  -13.5529 C   0  0  0  0  0  0  0  0  0  0  0  0
   -9.9463    5.5288  -13.7599 C   0  0  0  0  0  0  0  0  0  0  0  0
   -8.8834    6.4136  -11.5661 C   0  0  0  0  0  0  0  0  0  0  0  0
   -9.2841    4.2931  -11.5702 C   0  0  0  0  0  0  0  0  0  0  0  0
   -8.6897    5.8656  -14.6586 C   0  0  0  0  0  0  0  0  0  0  0  0
   -8.9934    5.3332  -12.6101 C   0  0  0  0  0  0  0  0  0  0  0  0
  -10.5873    3.8316   -7.9576 C   0  0  0  0  0  0  0  0  0  0  0  0
   -9.1110    1.8022   -8.0650 C   0  0  0  0  0  0  0  0  0  0  0  0
   -8.5873    3.6452   -6.4410 C   0  0  0  0  0  0  0  0  0  0  0  0
   -9.1585    3.3085   -7.8177 C   0  0  0  0  0  0  0  0  0  0  0  0
   -8.9724    5.3331  -10.5892 N   0  0  0  0  0  0  0  0  0  0  0  0
   -8.6559    6.1417   -8.4707 O   0  0  0  0  0  0  0  0  0  0  0  0
   -8.4058    7.2890  -14.7279 O   0  0  0  0  0  0  0  0  0  0  0  0
   -8.3414    3.9373   -8.8181 O   0  0  0  0  0  0  0  0  0  0  0  0
   -6.3633    5.5852  -19.5711 Br  0  0  0  0  0  0  0  0  0  0  0  0
  -10.3178    2.9301  -18.0202 H   0  0  0  0  0  0  0  0  0  0  0  0
  -10.3626    3.9337  -15.7596 H   0  0  0  0  0  0  0  0  0  0  0  0
   -8.6122    3.6284  -19.6591 H   0  0  0  0  0  0  0  0  0  0  0  0
   -6.9642    6.3663  -16.7632 H   0  0  0  0  0  0  0  0  0  0  0  0
   -7.6120    4.0799  -13.7825 H   0  0  0  0  0  0  0  0  0  0  0  0
   -6.8966    5.6253  -13.2805 H   0  0  0  0  0  0  0  0  0  0  0  0
  -10.6743    6.3398  -13.6537 H   0  0  0  0  0  0  0  0  0  0  0  0
  -10.4847    4.6229  -14.0655 H   0  0  0  0  0  0  0  0  0  0  0  0
   -7.9322    6.9502  -11.5137 H   0  0  0  0  0  0  0  0  0  0  0  0
   -9.7197    7.1146  -11.4957 H   0  0  0  0  0  0  0  0  0  0  0  0
  -10.3183    3.9476  -11.5010 H   0  0  0  0  0  0  0  0  0  0  0  0
   -8.5934    3.4482  -11.5186 H   0  0  0  0  0  0  0  0  0  0  0  0
  -10.6256    4.9125   -7.7808 H   0  0  0  0  0  0  0  0  0  0  0  0
  -10.9960    3.6273   -8.9526 H   0  0  0  0  0  0  0  0  0  0  0  0
  -11.2465    3.3729   -7.2118 H   0  0  0  0  0  0  0  0  0  0  0  0
   -8.0877    1.4226   -7.9657 H   0  0  0  0  0  0  0  0  0  0  0  0
   -9.4308    1.5641   -9.0860 H   0  0  0  0  0  0  0  0  0  0  0  0
   -9.7525    1.2574   -7.3648 H   0  0  0  0  0  0  0  0  0  0  0  0
   -7.5625    3.2700   -6.3404 H   0  0  0  0  0  0  0  0  0  0  0  0
   -8.5793    4.7250   -6.2608 H   0  0  0  0  0  0  0  0  0  0  0  0
   -9.1719    3.1642   -5.6484 H   0  0  0  0  0  0  0  0  0  0  0  0
   -9.1005    7.6564  -15.2841 H   0  0  0  0  0  0  0  0  0  0  0  0
  1  2  1  0  0  0  0
  1  3  2  0  0  0  0
  2  5  2  0  0  0  0
  3  6  1  0  0  0  0
  4  5  1  0  0  0  0
  4  6  2  0  0  0  0
  5 12  1  0  0  0  0
  6 22  1  0  0  0  0
  7 18  1  0  0  0  0
  7 19  2  0  0  0  0
  7 21  1  0  0  0  0
  8 12  1  0  0  0  0
  8 13  1  0  0  0  0
  9 12  1  0  0  0  0
  9 13  1  0  0  0  0
 10 13  1  0  0  0  0
 10 18  1  0  0  0  0
 11 13  1  0  0  0  0
 11 18  1  0  0  0  0
 12 20  1  0  0  0  0
 14 17  1  0  0  0  0
 15 17  1  0  0  0  0
 16 17  1  0  0  0  0
 17 21  1  0  0  0  0
  1 23  1  0  0  0  0
  2 24  1  0  0  0  0
  3 25  1  0  0  0  0
  4 26  1  0  0  0  0
  8 27  1  0  0  0  0
  8 28  1  0  0  0  0
  9 29  1  0  0  0  0
  9 30  1  0  0  0  0
 10 31  1  0  0  0  0
 10 32  1  0  0  0  0
 11 33  1  0  0  0  0
 11 34  1  0  0  0  0
 14 35  1  0  0  0  0
 14 36  1  0  0  0  0
 14 37  1  0  0  0  0
 15 38  1  0  0  0  0
 15 39  1  0  0  0  0
 15 40  1  0  0  0  0
 16 41  1  0  0  0  0
 16 42  1  0  0  0  0
 16 43  1  0  0  0  0
 20 44  1  0  0  0  0
M  END
> <id>
EN300-7428218

> <smiles>
CC(C)(C)OC(=O)N1CC2(C1)CC(O)(C2)C=3C=CC=C(Br)C3

> <IUPAC Name>
tert-butyl 6-(3-bromophenyl)-6-hydroxy-2-azaspiro[3.3]heptane-2-carboxylate

> <CAS>
2309463-19-0

> <URL>
https://www.enaminestore.com/catalog/EN300-7428218

> <ROCS_ShapeQuery>
_x0404_0B

> <ROCS_TanimotoCombo>
0.433 

> <ROCS_ShapeTanimoto>
0.371 

> <ROCS_ColorTanimoto>
0.061 

> <ROCS_RefTversky>
0.322 

> <ROCS_RefColorTversky>
0.067 

> <ROCS_RefTverskyCombo>
0.389 

> <ROCS_FitTversky>
1.692 

> <ROCS_FitColorTversky>
0.425 

> <ROCS_FitTverskyCombo>
2.116 

> <ROCS_ColorScore>
-4.843

> <ROCS_Overlap>
2150.621

> <ROCS_Rank>
372                 

$$$$
untitled-dbase-163683_217
  -OEChem-08222312023D

 52 54  0     1  0  0  0  0  0999 V2000
   -8.9059    5.7295  -17.8782 C   0  0  0  0  0  0  0  0  0  0  0  0
   -9.8754    6.0332  -16.9221 C   0  0  0  0  0  0  0  0  0  0  0  0
   -7.4964    4.8142  -16.1502 C   0  0  0  0  0  0  0  0  0  0  0  0
   -7.7167    5.1187  -17.4920 C   0  0  0  0  0  0  0  0  0  0  0  0
   -9.6658    5.7359  -15.5650 C   0  0  0  0  0  0  0  0  0  0  0  0
   -8.4614    5.1281  -15.1872 C   0  0  0  0  0  0  0  0  0  0  0  0
   -6.7119    4.7846  -18.4891 C   0  0  0  0  0  0  0  0  0  0  0  0
   -8.9691    5.0773   -9.1696 C   0  0  0  0  0  0  0  0  0  0  0  0
   -8.3622    6.6969  -12.4315 C   0  0  0  0  0  0  0  0  0  0  0  0
  -10.4457    5.3407  -13.2334 C   0  0  0  0  0  0  0  0  0  0  0  0
   -8.7716    6.8323  -10.9741 C   0  0  0  0  0  0  0  0  0  0  0  0
   -8.7336    4.5073  -11.5874 C   0  0  0  0  0  0  0  0  0  0  0  0
  -10.7379    6.0599  -14.5547 C   0  0  1  0  0  0  0  0  0  0  0  0
   -8.9508    5.3394  -12.8660 C   0  0  2  0  0  0  0  0  0  0  0  0
  -10.4429    3.7466   -7.1135 C   0  0  0  0  0  0  0  0  0  0  0  0
   -9.1413    1.6984   -7.7614 C   0  0  0  0  0  0  0  0  0  0  0  0
   -7.9380    3.7149   -6.8704 C   0  0  0  0  0  0  0  0  0  0  0  0
   -4.4552    5.1739  -19.1589 C   0  0  0  0  0  0  0  0  0  0  0  0
   -9.1289    3.2239   -7.6923 C   0  0  0  0  0  0  0  0  0  0  0  0
   -8.8327    5.4603  -10.4927 N   0  0  0  0  0  0  0  0  0  0  0  0
  -10.8711    7.5035  -14.3507 N   0  0  0  0  0  0  0  0  0  0  0  0
   -6.9005    4.0202  -19.4449 O   0  0  0  0  0  0  0  0  0  0  0  0
   -9.0563    5.8629   -8.2287 O   0  0  0  0  0  0  0  0  0  0  0  0
   -8.1499    4.7666  -13.9039 O   0  0  0  0  0  0  0  0  0  0  0  0
   -5.5266    5.4220  -18.2423 O   0  0  0  0  0  0  0  0  0  0  0  0
   -8.9930    3.7153   -9.0305 O   0  0  0  0  0  0  0  0  0  0  0  0
   -9.0903    5.9739  -18.9206 H   0  0  0  0  0  0  0  0  0  0  0  0
  -10.7973    6.5079  -17.2473 H   0  0  0  0  0  0  0  0  0  0  0  0
   -6.5753    4.3181  -15.8495 H   0  0  0  0  0  0  0  0  0  0  0  0
   -8.8019    7.5187  -13.0145 H   0  0  0  0  0  0  0  0  0  0  0  0
   -7.2708    6.7374  -12.5403 H   0  0  0  0  0  0  0  0  0  0  0  0
  -10.9997    5.8358  -12.4101 H   0  0  0  0  0  0  0  0  0  0  0  0
  -10.8339    4.3046  -13.2748 H   0  0  0  0  0  0  0  0  0  0  0  0
   -8.0131    7.3574  -10.3856 H   0  0  0  0  0  0  0  0  0  0  0  0
   -9.7330    7.3335  -10.8403 H   0  0  0  0  0  0  0  0  0  0  0  0
   -9.5267    3.7632  -11.4406 H   0  0  0  0  0  0  0  0  0  0  0  0
   -7.7599    4.0052  -11.5467 H   0  0  0  0  0  0  0  0  0  0  0  0
  -11.6876    5.6902  -14.9722 H   0  0  0  0  0  0  0  0  0  0  0  0
  -10.4379    4.8413   -7.0622 H   0  0  0  0  0  0  0  0  0  0  0  0
  -11.3022    3.4305   -7.7138 H   0  0  0  0  0  0  0  0  0  0  0  0
  -10.5875    3.3898   -6.0873 H   0  0  0  0  0  0  0  0  0  0  0  0
   -8.2004    1.3190   -8.1761 H   0  0  0  0  0  0  0  0  0  0  0  0
   -9.9370    1.3443   -8.4268 H   0  0  0  0  0  0  0  0  0  0  0  0
   -9.2905    1.2504   -6.7736 H   0  0  0  0  0  0  0  0  0  0  0  0
   -6.9953    3.3401   -7.2854 H   0  0  0  0  0  0  0  0  0  0  0  0
   -7.8919    4.8083   -6.8406 H   0  0  0  0  0  0  0  0  0  0  0  0
   -7.9935    3.3405   -5.8418 H   0  0  0  0  0  0  0  0  0  0  0  0
   -3.5723    5.7390  -18.8502 H   0  0  0  0  0  0  0  0  0  0  0  0
   -4.7589    5.4729  -20.1653 H   0  0  0  0  0  0  0  0  0  0  0  0
   -4.2222    4.1065  -19.1528 H   0  0  0  0  0  0  0  0  0  0  0  0
  -11.0596    7.9200  -15.2298 H   0  0  0  0  0  0  0  0  0  0  0  0
  -11.6195    7.6542  -13.7190 H   0  0  0  0  0  0  0  0  0  0  0  0
  1  2  1  0  0  0  0
  1  4  2  0  0  0  0
  2  5  2  0  0  0  0
  3  4  1  0  0  0  0
  3  6  2  0  0  0  0
  4  7  1  0  0  0  0
  5  6  1  0  0  0  0
  5 13  1  0  0  0  0
  6 24  1  0  0  0  0
  7 22  2  0  0  0  0
  7 25  1  0  0  0  0
  8 20  1  0  0  0  0
  8 23  2  0  0  0  0
  8 26  1  0  0  0  0
  9 11  1  0  0  0  0
  9 14  1  0  0  0  0
 10 13  1  0  0  0  0
 10 14  1  0  0  0  0
 11 20  1  0  0  0  0
 12 14  1  0  0  0  0
 12 20  1  0  0  0  0
 13 21  1  0  0  0  0
 14 24  1  0  0  0  0
 15 19  1  0  0  0  0
 16 19  1  0  0  0  0
 17 19  1  0  0  0  0
 18 25  1  0  0  0  0
 19 26  1  0  0  0  0
  1 27  1  0  0  0  0
  2 28  1  0  0  0  0
  3 29  1  0  0  0  0
  9 30  1  0  0  0  0
  9 31  1  0  0  0  0
 10 32  1  0  0  0  0
 10 33  1  0  0  0  0
 11 34  1  0  0  0  0
 11 35  1  0  0  0  0
 12 36  1  0  0  0  0
 12 37  1  0  0  0  0
 13 38  1  0  0  0  0
 15 39  1  0  0  0  0
 15 40  1  0  0  0  0
 15 41  1  0  0  0  0
 16 42  1  0  0  0  0
 16 43  1  0  0  0  0
 16 44  1  0  0  0  0
 17 45  1  0  0  0  0
 17 46  1  0  0  0  0
 17 47  1  0  0  0  0
 18 48  1  0  0  0  0
 18 49  1  0  0  0  0
 18 50  1  0  0  0  0
 21 51  1  0  0  0  0
 21 52  1  0  0  0  0
M  END
> <id>
EN300-1129078

> <smiles>
COC(=O)C=1C=CC=2C(N)CC3(CCN(C3)C(=O)OC(C)(C)C)OC2C1

> <IUPAC Name>
1'-tert-butyl 7-methyl 4-amino-3,4-dihydrospiro[1-benzopyran-2,3'-pyrrolidine]-1',7-dicarboxylate

> <CAS>
2138012-03-8

> <URL>
https://www.enaminestore.com/catalog/EN300-1129078

> <ROCS_ShapeQuery>
_x0404_0B

> <ROCS_TanimotoCombo>
0.433 

> <ROCS_ShapeTanimoto>
0.381 

> <ROCS_ColorTanimoto>
0.051 

> <ROCS_RefTversky>
0.337 

> <ROCS_RefColorTversky>
0.057 

> <ROCS_RefTverskyCombo>
0.394 

> <ROCS_FitTversky>
1.531 

> <ROCS_FitColorTversky>
0.336 

> <ROCS_FitTverskyCombo>
1.867 

> <ROCS_ColorScore>
-4.141

> <ROCS_Overlap>
2250.164

> <ROCS_Rank>
373                 

$$$$
untitled-dbase-120229_405
  -OEChem-08222312023D

 45 47  0     1  0  0  0  0  0999 V2000
   -9.0553    5.0280   -7.5967 C   0  0  0  0  0  0  0  0  0  0  0  0
   -9.0639    3.6765   -7.9078 C   0  0  0  0  0  0  0  0  0  0  0  0
   -8.9587    5.9686   -8.6207 C   0  0  0  0  0  0  0  0  0  0  0  0
   -8.9754    3.2771   -9.2402 C   0  0  0  0  0  0  0  0  0  0  0  0
   -8.6944    6.0757  -12.1971 C   0  0  0  0  0  0  0  0  0  0  0  0
   -8.8699    5.5801   -9.9554 C   0  0  0  0  0  0  0  0  0  0  0  0
   -8.8784    4.2090  -10.2710 C   0  0  0  0  0  0  0  0  0  0  0  0
   -8.7025    4.7411  -12.5043 C   0  0  0  0  0  0  0  0  0  0  0  0
   -7.5281    5.9085  -15.5163 C   0  0  0  0  0  0  0  0  0  0  0  0
   -6.2662    2.6588  -14.6274 C   0  0  0  0  0  0  0  0  0  0  0  0
   -6.1432    4.1521  -14.3407 C   0  0  0  0  0  0  0  0  0  0  0  0
   -8.6478    2.7490  -14.2195 C   0  0  0  0  0  0  0  0  0  0  0  0
   -8.6056    4.2720  -13.9560 C   0  0  2  0  0  0  0  0  0  0  0  0
   -7.9798    7.0482  -18.1026 C   0  0  0  0  0  0  0  0  0  0  0  0
   -5.9329    5.7788  -18.8151 C   0  0  0  0  0  0  0  0  0  0  0  0
   -7.9549    4.5336  -17.9971 C   0  0  0  0  0  0  0  0  0  0  0  0
   -7.1224    5.8073  -17.8578 C   0  0  0  0  0  0  0  0  0  0  0  0
   -8.7775    6.5065  -10.9255 N   0  0  0  0  0  0  0  0  0  0  0  0
   -8.7943    3.7989  -11.5487 N   0  0  0  0  0  0  0  0  0  0  0  0
   -7.3899    2.0590  -13.9064 N   0  0  0  0  0  0  0  0  0  0  0  0
   -7.4116    4.8297  -14.6307 N   0  0  0  0  0  0  0  0  0  0  0  0
   -8.3650    6.8036  -15.4115 O   0  0  0  0  0  0  0  0  0  0  0  0
   -6.6020    5.8686  -16.5247 O   0  0  0  0  0  0  0  0  0  0  0  0
   -9.1229    5.3527   -6.5628 H   0  0  0  0  0  0  0  0  0  0  0  0
   -9.1380    2.9336   -7.1194 H   0  0  0  0  0  0  0  0  0  0  0  0
   -8.9537    7.0255   -8.3623 H   0  0  0  0  0  0  0  0  0  0  0  0
   -8.9828    2.2133   -9.4701 H   0  0  0  0  0  0  0  0  0  0  0  0
   -8.6202    6.8485  -12.9526 H   0  0  0  0  0  0  0  0  0  0  0  0
   -6.3706    2.4856  -15.7073 H   0  0  0  0  0  0  0  0  0  0  0  0
   -5.3410    2.1583  -14.3159 H   0  0  0  0  0  0  0  0  0  0  0  0
   -5.9250    4.3207  -13.2891 H   0  0  0  0  0  0  0  0  0  0  0  0
   -5.3402    4.5790  -14.9315 H   0  0  0  0  0  0  0  0  0  0  0  0
   -9.4542    2.2848  -13.6422 H   0  0  0  0  0  0  0  0  0  0  0  0
   -8.8824    2.5815  -15.2774 H   0  0  0  0  0  0  0  0  0  0  0  0
   -9.4997    4.7166  -14.4819 H   0  0  0  0  0  0  0  0  0  0  0  0
   -8.8348    7.0724  -17.4173 H   0  0  0  0  0  0  0  0  0  0  0  0
   -7.4029    7.9694  -17.9714 H   0  0  0  0  0  0  0  0  0  0  0  0
   -8.3963    7.0419  -19.1163 H   0  0  0  0  0  0  0  0  0  0  0  0
   -5.3149    4.8901  -18.6431 H   0  0  0  0  0  0  0  0  0  0  0  0
   -5.2806    6.6445  -18.6531 H   0  0  0  0  0  0  0  0  0  0  0  0
   -6.2560    5.7791  -19.8612 H   0  0  0  0  0  0  0  0  0  0  0  0
   -7.3400    3.6434  -17.8216 H   0  0  0  0  0  0  0  0  0  0  0  0
   -8.7921    4.5199  -17.2917 H   0  0  0  0  0  0  0  0  0  0  0  0
   -8.3541    4.4382  -19.0133 H   0  0  0  0  0  0  0  0  0  0  0  0
   -7.4735    1.0764  -14.1656 H   0  0  0  0  0  0  0  0  0  0  0  0
  1  2  1  0  0  0  0
  1  3  2  0  0  0  0
  2  4  2  0  0  0  0
  3  6  1  0  0  0  0
  4  7  1  0  0  0  0
  5  8  2  0  0  0  0
  5 18  1  0  0  0  0
  6  7  1  0  0  0  0
  6 18  2  0  0  0  0
  7 19  2  0  0  0  0
  8 13  1  0  0  0  0
  8 19  1  0  0  0  0
  9 21  1  0  0  0  0
  9 22  2  0  0  0  0
  9 23  1  0  0  0  0
 10 11  1  0  0  0  0
 10 20  1  0  0  0  0
 11 21  1  0  0  0  0
 12 13  1  0  0  0  0
 12 20  1  0  0  0  0
 13 21  1  0  0  0  0
 14 17  1  0  0  0  0
 15 17  1  0  0  0  0
 16 17  1  0  0  0  0
 17 23  1  0  0  0  0
  1 24  1  0  0  0  0
  2 25  1  0  0  0  0
  3 26  1  0  0  0  0
  4 27  1  0  0  0  0
  5 28  1  0  0  0  0
 10 29  1  0  0  0  0
 10 30  1  0  0  0  0
 11 31  1  0  0  0  0
 11 32  1  0  0  0  0
 12 33  1  0  0  0  0
 12 34  1  0  0  0  0
 13 35  1  0  0  0  0
 14 36  1  0  0  0  0
 14 37  1  0  0  0  0
 14 38  1  0  0  0  0
 15 39  1  0  0  0  0
 15 40  1  0  0  0  0
 15 41  1  0  0  0  0
 16 42  1  0  0  0  0
 16 43  1  0  0  0  0
 16 44  1  0  0  0  0
 20 45  1  0  0  0  0
M  END
> <id>
EN300-1873636

> <smiles>
CC(C)(C)OC(=O)N1CCNCC1C=2C=NC=3C=CC=CC3N2

> <IUPAC Name>
tert-butyl 2-(quinoxalin-2-yl)piperazine-1-carboxylate

> <CAS>
2229153-36-8

> <URL>
https://www.enaminestore.com/catalog/EN300-1873636

> <ROCS_ShapeQuery>
_x0404_0B

> <ROCS_TanimotoCombo>
0.433 

> <ROCS_ShapeTanimoto>
0.340 

> <ROCS_ColorTanimoto>
0.093 

> <ROCS_RefTversky>
0.305 

> <ROCS_RefColorTversky>
0.100 

> <ROCS_RefTverskyCombo>
0.404 

> <ROCS_FitTversky>
1.510 

> <ROCS_FitColorTversky>
0.584 

> <ROCS_FitTverskyCombo>
2.094 

> <ROCS_ColorScore>
-7.207

> <ROCS_Overlap>
2033.936

> <ROCS_Rank>
374                 

$$$$
untitled-dbase-103157_22
  -OEChem-08222312023D

 46 49  0     1  0  0  0  0  0999 V2000
   -9.6110    4.6203  -17.4685 C   0  0  0  0  0  0  0  0  0  0  0  0
   -8.8789    5.3421  -18.4030 C   0  0  0  0  0  0  0  0  0  0  0  0
   -9.0300    4.2889  -16.2479 C   0  0  0  0  0  0  0  0  0  0  0  0
   -7.5682    5.7307  -18.1150 C   0  0  0  0  0  0  0  0  0  0  0  0
   -5.7989    4.7605  -14.4820 C   0  0  0  0  0  0  0  0  0  0  0  0
   -7.7117    4.6799  -15.9584 C   0  0  0  0  0  0  0  0  0  0  0  0
   -7.1024    4.3597  -14.7377 C   0  0  0  0  0  0  0  0  0  0  0  0
   -6.9625    5.4130  -16.9024 C   0  0  0  0  0  0  0  0  0  0  0  0
   -5.1460    5.4740  -15.4665 C   0  0  0  0  0  0  0  0  0  0  0  0
   -7.7888    3.6023  -13.6853 C   0  0  0  0  0  0  0  0  0  0  0  0
   -7.5401    3.9537   -9.7905 C   0  0  0  0  0  0  0  0  0  0  0  0
   -8.5653    5.7770  -12.8020 C   0  0  0  0  0  0  0  0  0  0  0  0
   -9.2912    3.7421  -11.6308 C   0  0  0  0  0  0  0  0  0  0  0  0
   -7.8402    2.6319   -9.1158 C   0  0  0  0  0  0  0  0  0  0  0  0
   -8.1931    6.3806  -11.4488 C   0  0  1  0  0  0  0  0  0  0  0  0
   -9.8138    3.8897   -9.1630 C   0  0  2  0  0  0  0  0  0  0  0  0
   -8.9064    4.4066  -10.2925 C   0  0  1  0  0  0  0  0  0  0  0  0
   -8.4120    7.8878  -11.4476 C   0  0  0  0  0  0  0  0  0  0  0  0
   -9.9630    4.8348   -7.9726 C   0  0  0  0  0  0  0  0  0  0  0  0
   -5.6974    5.8033  -16.6571 N   0  0  0  0  0  0  0  0  0  0  0  0
   -8.5129    4.3195  -12.7329 N   0  0  0  0  0  0  0  0  0  0  0  0
   -7.6725    2.3790  -13.7295 O   0  0  0  0  0  0  0  0  0  0  0  0
   -9.2074    2.6735   -8.6859 O   0  0  0  0  0  0  0  0  0  0  0  0
   -9.0134    5.8252  -10.4142 O   0  0  0  0  0  0  0  0  0  0  0  0
   -3.5325    6.0155  -15.2494 Cl  0  0  0  0  0  0  0  0  0  0  0  0
  -10.6301    4.3173  -17.6886 H   0  0  0  0  0  0  0  0  0  0  0  0
   -9.3248    5.6040  -19.3581 H   0  0  0  0  0  0  0  0  0  0  0  0
   -9.6258    3.7230  -15.5358 H   0  0  0  0  0  0  0  0  0  0  0  0
   -7.0160    6.2961  -18.8636 H   0  0  0  0  0  0  0  0  0  0  0  0
   -5.3107    4.5213  -13.5422 H   0  0  0  0  0  0  0  0  0  0  0  0
   -7.0350    4.6440   -9.1037 H   0  0  0  0  0  0  0  0  0  0  0  0
   -6.8595    3.7817  -10.6394 H   0  0  0  0  0  0  0  0  0  0  0  0
   -9.5962    6.0384  -13.0746 H   0  0  0  0  0  0  0  0  0  0  0  0
   -7.9053    6.1552  -13.5910 H   0  0  0  0  0  0  0  0  0  0  0  0
   -9.1736    2.6571  -11.5731 H   0  0  0  0  0  0  0  0  0  0  0  0
  -10.3426    3.9449  -11.8653 H   0  0  0  0  0  0  0  0  0  0  0  0
   -7.6921    1.7774   -9.7855 H   0  0  0  0  0  0  0  0  0  0  0  0
   -7.2150    2.4849   -8.2265 H   0  0  0  0  0  0  0  0  0  0  0  0
   -7.1405    6.1884  -11.2239 H   0  0  0  0  0  0  0  0  0  0  0  0
  -10.7986    3.6294   -9.5410 H   0  0  0  0  0  0  0  0  0  0  0  0
   -9.4552    8.1133  -11.6694 H   0  0  0  0  0  0  0  0  0  0  0  0
   -7.7807    8.3569  -12.2024 H   0  0  0  0  0  0  0  0  0  0  0  0
   -8.1611    8.3003  -10.4703 H   0  0  0  0  0  0  0  0  0  0  0  0
   -8.9809    5.1054   -7.5817 H   0  0  0  0  0  0  0  0  0  0  0  0
  -10.5360    4.3525   -7.1790 H   0  0  0  0  0  0  0  0  0  0  0  0
  -10.4825    5.7447   -8.2775 H   0  0  0  0  0  0  0  0  0  0  0  0
  1  2  2  0  0  0  0
  1  3  1  0  0  0  0
  2  4  1  0  0  0  0
  3  6  2  0  0  0  0
  4  8  2  0  0  0  0
  5  7  2  0  0  0  0
  5  9  1  0  0  0  0
  6  7  1  0  0  0  0
  6  8  1  0  0  0  0
  7 10  1  0  0  0  0
  8 20  1  0  0  0  0
  9 20  2  0  0  0  0
  9 25  1  0  0  0  0
 10 21  1  0  0  0  0
 10 22  2  0  0  0  0
 11 14  1  0  0  0  0
 11 17  1  0  0  0  0
 12 15  1  0  0  0  0
 12 21  1  0  0  0  0
 13 17  1  0  0  0  0
 13 21  1  0  0  0  0
 14 23  1  0  0  0  0
 15 18  1  0  0  0  0
 15 24  1  0  0  0  0
 16 17  1  0  0  0  0
 16 19  1  0  0  0  0
 16 23  1  0  0  0  0
 17 24  1  0  0  0  0
  1 26  1  0  0  0  0
  2 27  1  0  0  0  0
  3 28  1  0  0  0  0
  4 29  1  0  0  0  0
  5 30  1  0  0  0  0
 11 31  1  0  0  0  0
 11 32  1  0  0  0  0
 12 33  1  0  0  0  0
 12 34  1  0  0  0  0
 13 35  1  0  0  0  0
 13 36  1  0  0  0  0
 14 37  1  0  0  0  0
 14 38  1  0  0  0  0
 15 39  1  0  0  0  0
 16 40  1  0  0  0  0
 18 41  1  0  0  0  0
 18 42  1  0  0  0  0
 18 43  1  0  0  0  0
 19 44  1  0  0  0  0
 19 45  1  0  0  0  0
 19 46  1  0  0  0  0
M  END
> <id>
EN300-6636391

> <smiles>
CC1OCCC21CN(CC(C)O2)C(=O)C=3C=C(Cl)N=C4C=CC=CC34

> <IUPAC Name>
9-(2-chloroquinoline-4-carbonyl)-1,7-dimethyl-2,6-dioxa-9-azaspiro[4.5]decane

> <CAS>
1808766-93-9

> <URL>
https://www.enaminestore.com/catalog/EN300-6636391

> <ROCS_ShapeQuery>
_x0404_0B

> <ROCS_TanimotoCombo>
0.433 

> <ROCS_ShapeTanimoto>
0.345 

> <ROCS_ColorTanimoto>
0.087 

> <ROCS_RefTversky>
0.312 

> <ROCS_RefColorTversky>
0.093 

> <ROCS_RefTverskyCombo>
0.405 

> <ROCS_FitTversky>
1.449 

> <ROCS_FitColorTversky>
0.589 

> <ROCS_FitTverskyCombo>
2.038 

> <ROCS_ColorScore>
-6.705

> <ROCS_Overlap>
2084.568

> <ROCS_Rank>
375                 

$$$$
untitled-dbase-119108_136
  -OEChem-08222312023D

 51 53  0     0  0  0  0  0  0999 V2000
   -8.5974    5.0461  -16.0289 B   0  0  0  0  0  0  0  0  0  0  0  0
   -8.7004    4.1329  -13.6342 C   0  0  0  0  0  0  0  0  0  0  0  0
   -8.8344    4.2788  -12.2496 C   0  0  0  0  0  0  0  0  0  0  0  0
   -9.2677    7.8257  -11.7423 C   0  0  0  0  0  0  0  0  0  0  0  0
   -8.9354    6.5170  -13.9548 C   0  0  0  0  0  0  0  0  0  0  0  0
   -9.3317    7.3943  -10.4411 C   0  0  0  0  0  0  0  0  0  0  0  0
   -8.7501    5.2356  -14.4775 C   0  0  0  0  0  0  0  0  0  0  0  0
   -9.0731    6.6890  -12.5614 C   0  0  0  0  0  0  0  0  0  0  0  0
   -9.0220    5.5697  -11.7193 C   0  0  0  0  0  0  0  0  0  0  0  0
   -9.1967    5.2239   -9.2454 C   0  0  0  0  0  0  0  0  0  0  0  0
   -9.1146    4.4969  -18.1913 C   0  0  0  0  0  0  0  0  0  0  0  0
   -7.6623    5.0767  -18.1193 C   0  0  0  0  0  0  0  0  0  0  0  0
  -10.1716    5.4628  -18.7725 C   0  0  0  0  0  0  0  0  0  0  0  0
   -9.2351    3.1616  -18.9389 C   0  0  0  0  0  0  0  0  0  0  0  0
   -7.3696    6.1983  -19.1258 C   0  0  0  0  0  0  0  0  0  0  0  0
   -6.5364    4.0253  -18.2405 C   0  0  0  0  0  0  0  0  0  0  0  0
   -9.5082    3.2174   -7.2633 C   0  0  0  0  0  0  0  0  0  0  0  0
   -9.8223    1.6313   -9.1854 C   0  0  0  0  0  0  0  0  0  0  0  0
   -7.6482    2.8608   -8.9210 C   0  0  0  0  0  0  0  0  0  0  0  0
   -9.1619    2.9283   -8.7232 C   0  0  0  0  0  0  0  0  0  0  0  0
   -9.1841    6.0185  -10.4042 N   0  0  0  0  0  0  0  0  0  0  0  0
   -8.8118    5.6542   -8.1708 O   0  0  0  0  0  0  0  0  0  0  0  0
   -9.4693    4.2671  -16.7895 O   0  0  0  0  0  0  0  0  0  0  0  0
   -7.5777    5.6416  -16.7713 O   0  0  0  0  0  0  0  0  0  0  0  0
   -9.6803    3.9882   -9.5326 O   0  0  0  0  0  0  0  0  0  0  0  0
   -8.5563    3.1273  -14.0273 H   0  0  0  0  0  0  0  0  0  0  0  0
   -8.7904    3.3989  -11.6175 H   0  0  0  0  0  0  0  0  0  0  0  0
   -9.3530    8.8547  -12.0639 H   0  0  0  0  0  0  0  0  0  0  0  0
   -8.9762    7.3930  -14.5994 H   0  0  0  0  0  0  0  0  0  0  0  0
   -9.4719    7.9685   -9.5350 H   0  0  0  0  0  0  0  0  0  0  0  0
  -11.1344    4.9675  -18.7780 H   0  0  0  0  0  0  0  0  0  0  0  0
   -9.8861    5.7290  -19.7825 H   0  0  0  0  0  0  0  0  0  0  0  0
  -10.2146    6.3500  -18.1533 H   0  0  0  0  0  0  0  0  0  0  0  0
  -10.2723    2.8393  -18.9375 H   0  0  0  0  0  0  0  0  0  0  0  0
   -8.6221    2.4141  -18.4440 H   0  0  0  0  0  0  0  0  0  0  0  0
   -8.8961    3.2892  -19.9629 H   0  0  0  0  0  0  0  0  0  0  0  0
   -6.3447    6.5360  -19.0023 H   0  0  0  0  0  0  0  0  0  0  0  0
   -8.0484    7.0277  -18.9498 H   0  0  0  0  0  0  0  0  0  0  0  0
   -7.5089    5.8230  -20.1354 H   0  0  0  0  0  0  0  0  0  0  0  0
   -5.5791    4.5276  -18.1789 H   0  0  0  0  0  0  0  0  0  0  0  0
   -6.6292    3.5200  -19.1936 H   0  0  0  0  0  0  0  0  0  0  0  0
   -6.6336    3.3121  -17.4316 H   0  0  0  0  0  0  0  0  0  0  0  0
   -9.0360    4.1477   -6.9277 H   0  0  0  0  0  0  0  0  0  0  0  0
  -10.5895    3.3030   -7.1145 H   0  0  0  0  0  0  0  0  0  0  0  0
   -9.1302    2.4249   -6.6074 H   0  0  0  0  0  0  0  0  0  0  0  0
   -9.5765    1.4199  -10.2324 H   0  0  0  0  0  0  0  0  0  0  0  0
  -10.9143    1.7095   -9.1345 H   0  0  0  0  0  0  0  0  0  0  0  0
   -9.5070    0.7780   -8.5762 H   0  0  0  0  0  0  0  0  0  0  0  0
   -7.3996    2.6535   -9.9681 H   0  0  0  0  0  0  0  0  0  0  0  0
   -7.1612    3.7969   -8.6290 H   0  0  0  0  0  0  0  0  0  0  0  0
   -7.2144    2.0442   -8.3326 H   0  0  0  0  0  0  0  0  0  0  0  0
  1  7  1  0  0  0  0
  1 23  1  0  0  0  0
  1 24  1  0  0  0  0
  2  3  1  0  0  0  0
  2  7  2  0  0  0  0
  3  9  2  0  0  0  0
  4  6  2  0  0  0  0
  4  8  1  0  0  0  0
  5  7  1  0  0  0  0
  5  8  2  0  0  0  0
  6 21  1  0  0  0  0
  8  9  1  0  0  0  0
  9 21  1  0  0  0  0
 10 21  1  0  0  0  0
 10 22  2  0  0  0  0
 10 25  1  0  0  0  0
 11 12  1  0  0  0  0
 11 13  1  0  0  0  0
 11 14  1  0  0  0  0
 11 23  1  0  0  0  0
 12 15  1  0  0  0  0
 12 16  1  0  0  0  0
 12 24  1  0  0  0  0
 17 20  1  0  0  0  0
 18 20  1  0  0  0  0
 19 20  1  0  0  0  0
 20 25  1  0  0  0  0
  2 26  1  0  0  0  0
  3 27  1  0  0  0  0
  4 28  1  0  0  0  0
  5 29  1  0  0  0  0
  6 30  1  0  0  0  0
 13 31  1  0  0  0  0
 13 32  1  0  0  0  0
 13 33  1  0  0  0  0
 14 34  1  0  0  0  0
 14 35  1  0  0  0  0
 14 36  1  0  0  0  0
 15 37  1  0  0  0  0
 15 38  1  0  0  0  0
 15 39  1  0  0  0  0
 16 40  1  0  0  0  0
 16 41  1  0  0  0  0
 16 42  1  0  0  0  0
 17 43  1  0  0  0  0
 17 44  1  0  0  0  0
 17 45  1  0  0  0  0
 18 46  1  0  0  0  0
 18 47  1  0  0  0  0
 18 48  1  0  0  0  0
 19 49  1  0  0  0  0
 19 50  1  0  0  0  0
 19 51  1  0  0  0  0
M  END
> <id>
EN300-7361340

> <smiles>
CC(C)(C)OC(=O)N1C=CC=2C=C(C=CC12)B3OC(C)(C)C(C)(C)O3

> <MDLNUMBER>
MFCD05663895

> <IUPAC Name>
tert-butyl 5-(tetramethyl-1,3,2-dioxaborolan-2-yl)-1H-indole-1-carboxylate

> <CAS>
777061-36-6

> <Purity>
95

> <URL>
https://www.enaminestore.com/catalog/EN300-7361340

> <MP>
131-135

> <ROCS_ShapeQuery>
_x0404_0B

> <ROCS_TanimotoCombo>
0.433 

> <ROCS_ShapeTanimoto>
0.398 

> <ROCS_ColorTanimoto>
0.034 

> <ROCS_RefTversky>
0.346 

> <ROCS_RefColorTversky>
0.038 

> <ROCS_RefTverskyCombo>
0.384 

> <ROCS_FitTversky>
1.617 

> <ROCS_FitColorTversky>
0.263 

> <ROCS_FitTverskyCombo>
1.880 

> <ROCS_ColorScore>
-2.745

> <ROCS_Overlap>
2309.432

> <ROCS_Rank>
376                 

$$$$
untitled-dbase-39093_452
  -OEChem-08222312023D

 52 54  0     1  0  0  0  0  0999 V2000
   -9.1149    3.7870   -9.8289 C   0  0  0  0  0  0  0  0  0  0  0  0
   -9.1082    5.3526   -7.9961 C   0  0  0  0  0  0  0  0  0  0  0  0
   -9.2117    4.0458   -8.4632 C   0  0  0  0  0  0  0  0  0  0  0  0
   -8.8099    6.1546  -10.2756 C   0  0  0  0  0  0  0  0  0  0  0  0
   -8.9234    4.8359  -10.7346 C   0  0  0  0  0  0  0  0  0  0  0  0
   -8.9055    6.3996   -8.8955 C   0  0  0  0  0  0  0  0  0  0  0  0
   -9.4040    2.9505   -7.5256 C   0  0  0  0  0  0  0  0  0  0  0  0
   -8.8455    5.6293  -16.7210 C   0  0  0  0  0  0  0  0  0  0  0  0
  -10.4221    5.7301  -13.3840 C   0  0  0  0  0  0  0  0  0  0  0  0
   -8.1579    6.7694  -12.5989 C   0  0  0  0  0  0  0  0  0  0  0  0
  -10.3825    6.2432  -14.8140 C   0  0  0  0  0  0  0  0  0  0  0  0
   -8.3874    4.9813  -14.3554 C   0  0  0  0  0  0  0  0  0  0  0  0
   -8.5737    7.3035  -11.2240 C   0  0  1  0  0  0  0  0  0  0  0  0
   -8.9401    5.5116  -13.0184 C   0  0  2  0  0  0  0  0  0  0  0  0
   -7.5261    6.8665  -18.9343 C   0  0  0  0  0  0  0  0  0  0  0  0
   -5.5057    5.5522  -18.2273 C   0  0  0  0  0  0  0  0  0  0  0  0
   -7.5878    4.3504  -18.9544 C   0  0  0  0  0  0  0  0  0  0  0  0
   -9.6613    2.4118   -5.2156 C   0  0  0  0  0  0  0  0  0  0  0  0
   -7.0321    5.5901  -18.2549 C   0  0  0  0  0  0  0  0  0  0  0  0
   -9.1939    5.6240  -15.3814 N   0  0  0  0  0  0  0  0  0  0  0  0
   -9.7494    8.1696  -11.3286 N   0  0  0  0  0  0  0  0  0  0  0  0
   -9.4929    1.7587   -7.8494 O   0  0  0  0  0  0  0  0  0  0  0  0
   -9.6550    5.6624  -17.6450 O   0  0  0  0  0  0  0  0  0  0  0  0
   -8.8225    4.4660  -12.0490 O   0  0  0  0  0  0  0  0  0  0  0  0
   -9.4738    3.3994   -6.2349 O   0  0  0  0  0  0  0  0  0  0  0  0
   -7.4883    5.5906  -16.8974 O   0  0  0  0  0  0  0  0  0  0  0  0
   -8.7925    7.6455   -8.4136 F   0  0  0  0  0  0  0  0  0  0  0  0
   -9.1758    2.7632  -10.1939 H   0  0  0  0  0  0  0  0  0  0  0  0
   -9.1804    5.5691   -6.9341 H   0  0  0  0  0  0  0  0  0  0  0  0
  -10.8778    6.4899  -12.7335 H   0  0  0  0  0  0  0  0  0  0  0  0
  -11.0141    4.8084  -13.3123 H   0  0  0  0  0  0  0  0  0  0  0  0
   -8.3288    7.5495  -13.3685 H   0  0  0  0  0  0  0  0  0  0  0  0
   -7.0691    6.5688  -12.6123 H   0  0  0  0  0  0  0  0  0  0  0  0
  -11.2448    5.8992  -15.3932 H   0  0  0  0  0  0  0  0  0  0  0  0
  -10.3219    7.3320  -14.8810 H   0  0  0  0  0  0  0  0  0  0  0  0
   -7.3471    5.2890  -14.5223 H   0  0  0  0  0  0  0  0  0  0  0  0
   -8.4600    3.8928  -14.4634 H   0  0  0  0  0  0  0  0  0  0  0  0
   -7.7518    7.9011  -10.7952 H   0  0  0  0  0  0  0  0  0  0  0  0
   -8.6213    6.8974  -18.9561 H   0  0  0  0  0  0  0  0  0  0  0  0
   -7.1630    7.7630  -18.4212 H   0  0  0  0  0  0  0  0  0  0  0  0
   -7.1948    6.9071  -19.9783 H   0  0  0  0  0  0  0  0  0  0  0  0
   -5.1468    4.6380  -17.7406 H   0  0  0  0  0  0  0  0  0  0  0  0
   -5.1049    6.3896  -17.6447 H   0  0  0  0  0  0  0  0  0  0  0  0
   -5.0821    5.5972  -19.2358 H   0  0  0  0  0  0  0  0  0  0  0  0
   -7.2336    3.4347  -18.4672 H   0  0  0  0  0  0  0  0  0  0  0  0
   -8.6826    4.3423  -18.9512 H   0  0  0  0  0  0  0  0  0  0  0  0
   -7.2422    4.3015  -19.9933 H   0  0  0  0  0  0  0  0  0  0  0  0
   -9.6996    2.8988   -4.2381 H   0  0  0  0  0  0  0  0  0  0  0  0
   -8.8367    1.6951   -5.2454 H   0  0  0  0  0  0  0  0  0  0  0  0
  -10.6031    1.8884   -5.3966 H   0  0  0  0  0  0  0  0  0  0  0  0
   -9.9770    8.4861  -10.4178 H   0  0  0  0  0  0  0  0  0  0  0  0
   -9.5161    8.9292  -11.9204 H   0  0  0  0  0  0  0  0  0  0  0  0
  1  3  1  0  0  0  0
  1  5  2  0  0  0  0
  2  3  2  0  0  0  0
  2  6  1  0  0  0  0
  3  7  1  0  0  0  0
  4  5  1  0  0  0  0
  4  6  2  0  0  0  0
  4 13  1  0  0  0  0
  5 24  1  0  0  0  0
  6 27  1  0  0  0  0
  7 22  2  0  0  0  0
  7 25  1  0  0  0  0
  8 20  1  0  0  0  0
  8 23  2  0  0  0  0
  8 26  1  0  0  0  0
  9 11  1  0  0  0  0
  9 14  1  0  0  0  0
 10 13  1  0  0  0  0
 10 14  1  0  0  0  0
 11 20  1  0  0  0  0
 12 14  1  0  0  0  0
 12 20  1  0  0  0  0
 13 21  1  0  0  0  0
 14 24  1  0  0  0  0
 15 19  1  0  0  0  0
 16 19  1  0  0  0  0
 17 19  1  0  0  0  0
 18 25  1  0  0  0  0
 19 26  1  0  0  0  0
  1 28  1  0  0  0  0
  2 29  1  0  0  0  0
  9 30  1  0  0  0  0
  9 31  1  0  0  0  0
 10 32  1  0  0  0  0
 10 33  1  0  0  0  0
 11 34  1  0  0  0  0
 11 35  1  0  0  0  0
 12 36  1  0  0  0  0
 12 37  1  0  0  0  0
 13 38  1  0  0  0  0
 15 39  1  0  0  0  0
 15 40  1  0  0  0  0
 15 41  1  0  0  0  0
 16 42  1  0  0  0  0
 16 43  1  0  0  0  0
 16 44  1  0  0  0  0
 17 45  1  0  0  0  0
 17 46  1  0  0  0  0
 17 47  1  0  0  0  0
 18 48  1  0  0  0  0
 18 49  1  0  0  0  0
 18 50  1  0  0  0  0
 21 51  1  0  0  0  0
 21 52  1  0  0  0  0
M  END
> <id>
EN300-1129080

> <smiles>
COC(=O)C=1C=C(F)C=2C(N)CC3(CCN(C3)C(=O)OC(C)(C)C)OC2C1

> <IUPAC Name>
1'-tert-butyl 7-methyl 4-amino-5-fluoro-3,4-dihydrospiro[1-benzopyran-2,3'-pyrrolidine]-1',7-dicarboxylate

> <CAS>
2138012-12-9

> <URL>
https://www.enaminestore.com/catalog/EN300-1129080

> <ROCS_ShapeQuery>
_x0404_0B

> <ROCS_TanimotoCombo>
0.433 

> <ROCS_ShapeTanimoto>
0.391 

> <ROCS_ColorTanimoto>
0.042 

> <ROCS_RefTversky>
0.345 

> <ROCS_RefColorTversky>
0.047 

> <ROCS_RefTverskyCombo>
0.392 

> <ROCS_FitTversky>
1.519 

> <ROCS_FitColorTversky>
0.275 

> <ROCS_FitTverskyCombo>
1.794 

> <ROCS_ColorScore>
-3.389

> <ROCS_Overlap>
2305.046

> <ROCS_Rank>
377                 

$$$$
untitled-dbase-179759_59
  -OEChem-08222312023D

 40 41  0     1  0  0  0  0  0999 V2000
   -8.6299    6.4008  -10.9976 C   0  0  0  0  0  0  0  0  0  0  0  0
   -8.6928    6.1513  -12.3731 C   0  0  0  0  0  0  0  0  0  0  0  0
   -8.8939    4.0590  -10.5632 C   0  0  0  0  0  0  0  0  0  0  0  0
   -8.7277    5.3553  -10.0919 C   0  0  0  0  0  0  0  0  0  0  0  0
   -8.9475    3.7929  -11.9450 C   0  0  0  0  0  0  0  0  0  0  0  0
   -8.8426    4.8479  -12.8798 C   0  0  0  0  0  0  0  0  0  0  0  0
   -8.6717    5.6155   -8.6626 C   0  0  0  0  0  0  0  0  0  0  0  0
   -8.6237    5.5328  -15.2911 C   0  0  0  0  0  0  0  0  0  0  0  0
   -9.1549    2.3577  -12.3600 C   0  0  0  0  0  0  0  0  0  0  0  0
   -9.3745    3.2256  -14.6912 C   0  0  0  0  0  0  0  0  0  0  0  0
   -8.8000    2.1246  -13.8159 C   0  0  1  0  0  0  0  0  0  0  0  0
   -6.4964    5.2965  -17.2029 C   0  0  0  0  0  0  0  0  0  0  0  0
   -8.3082    4.8837  -18.8929 C   0  0  0  0  0  0  0  0  0  0  0  0
   -8.2071    7.0802  -17.6792 C   0  0  0  0  0  0  0  0  0  0  0  0
   -7.9503    5.5772  -17.5803 C   0  0  0  0  0  0  0  0  0  0  0  0
   -8.9213    4.5734  -14.2976 N   0  0  0  0  0  0  0  0  0  0  0  0
   -9.0536    6.6512   -8.1073 O   0  0  0  0  0  0  0  0  0  0  0  0
   -8.2397    6.6832  -15.0984 O   0  0  0  0  0  0  0  0  0  0  0  0
   -8.1413    4.5743   -7.9639 O   0  0  0  0  0  0  0  0  0  0  0  0
   -7.3824    2.0690  -13.9595 O   0  0  0  0  0  0  0  0  0  0  0  0
   -8.7987    5.0356  -16.5606 O   0  0  0  0  0  0  0  0  0  0  0  0
   -8.5174    7.4250  -10.6499 H   0  0  0  0  0  0  0  0  0  0  0  0
   -8.6567    7.0252  -13.0129 H   0  0  0  0  0  0  0  0  0  0  0  0
   -8.9845    3.2374   -9.8548 H   0  0  0  0  0  0  0  0  0  0  0  0
   -8.5437    1.7032  -11.7266 H   0  0  0  0  0  0  0  0  0  0  0  0
  -10.2109    2.1107  -12.1946 H   0  0  0  0  0  0  0  0  0  0  0  0
   -9.0839    3.0242  -15.7272 H   0  0  0  0  0  0  0  0  0  0  0  0
  -10.4707    3.2296  -14.6498 H   0  0  0  0  0  0  0  0  0  0  0  0
   -9.1902    1.1501  -14.1310 H   0  0  0  0  0  0  0  0  0  0  0  0
   -6.2356    5.7927  -16.2612 H   0  0  0  0  0  0  0  0  0  0  0  0
   -6.3077    4.2235  -17.0945 H   0  0  0  0  0  0  0  0  0  0  0  0
   -5.8120    5.6935  -17.9613 H   0  0  0  0  0  0  0  0  0  0  0  0
   -9.3505    5.0823  -19.1676 H   0  0  0  0  0  0  0  0  0  0  0  0
   -8.2162    3.7957  -18.7973 H   0  0  0  0  0  0  0  0  0  0  0  0
   -7.6641    5.2152  -19.7138 H   0  0  0  0  0  0  0  0  0  0  0  0
   -9.2498    7.2818  -17.9499 H   0  0  0  0  0  0  0  0  0  0  0  0
   -7.9907    7.5894  -16.7345 H   0  0  0  0  0  0  0  0  0  0  0  0
   -7.5908    7.5298  -18.4663 H   0  0  0  0  0  0  0  0  0  0  0  0
   -8.0999    4.7397   -6.9978 H   0  0  0  0  0  0  0  0  0  0  0  0
   -7.0409    2.9231  -13.6530 H   0  0  0  0  0  0  0  0  0  0  0  0
  1  2  1  0  0  0  0
  1  4  2  0  0  0  0
  2  6  2  0  0  0  0
  3  4  1  0  0  0  0
  3  5  2  0  0  0  0
  4  7  1  0  0  0  0
  5  6  1  0  0  0  0
  5  9  1  0  0  0  0
  6 16  1  0  0  0  0
  7 17  2  0  0  0  0
  7 19  1  0  0  0  0
  8 16  1  0  0  0  0
  8 18  2  0  0  0  0
  8 21  1  0  0  0  0
  9 11  1  0  0  0  0
 10 11  1  0  0  0  0
 10 16  1  0  0  0  0
 11 20  1  0  0  0  0
 12 15  1  0  0  0  0
 13 15  1  0  0  0  0
 14 15  1  0  0  0  0
 15 21  1  0  0  0  0
  1 22  1  0  0  0  0
  2 23  1  0  0  0  0
  3 24  1  0  0  0  0
  9 25  1  0  0  0  0
  9 26  1  0  0  0  0
 10 27  1  0  0  0  0
 10 28  1  0  0  0  0
 11 29  1  0  0  0  0
 12 30  1  0  0  0  0
 12 31  1  0  0  0  0
 12 32  1  0  0  0  0
 13 33  1  0  0  0  0
 13 34  1  0  0  0  0
 13 35  1  0  0  0  0
 14 36  1  0  0  0  0
 14 37  1  0  0  0  0
 14 38  1  0  0  0  0
 19 39  1  0  0  0  0
 20 40  1  0  0  0  0
M  END
> <id>
EN300-39680541

> <smiles>
CC(C)(C)OC(=O)N1CC(O)CC=2C=C(C=CC12)C(=O)O

> <IUPAC Name>
1-[(tert-butoxy)carbonyl]-3-hydroxy-1,2,3,4-tetrahydroquinoline-6-carboxylic acid

> <URL>
https://www.enaminestore.com/catalog/EN300-39680541

> <ROCS_ShapeQuery>
_x0404_0B

> <ROCS_TanimotoCombo>
0.432 

> <ROCS_ShapeTanimoto>
0.311 

> <ROCS_ColorTanimoto>
0.121 

> <ROCS_RefTversky>
0.282 

> <ROCS_RefColorTversky>
0.126 

> <ROCS_RefTverskyCombo>
0.408 

> <ROCS_FitTversky>
1.512 

> <ROCS_FitColorTversky>
0.740 

> <ROCS_FitTverskyCombo>
2.252 

> <ROCS_ColorScore>
-9.137

> <ROCS_Overlap>
1879.776

> <ROCS_Rank>
378                 

$$$$
untitled-dbase-99315_10
  -OEChem-08222312023D

 39 40  0     1  0  0  0  0  0999 V2000
   -9.0160    4.0671   -7.6457 C   0  0  0  0  0  0  0  0  0  0  0  0
   -8.9510    5.4375   -7.4780 C   0  0  0  0  0  0  0  0  0  0  0  0
   -8.9773    4.4511  -10.0316 C   0  0  0  0  0  0  0  0  0  0  0  0
   -9.0332    3.5737   -8.9442 C   0  0  0  0  0  0  0  0  0  0  0  0
   -8.9289    5.8215   -9.7591 C   0  0  0  0  0  0  0  0  0  0  0  0
   -8.6373    5.1622  -14.9884 C   0  0  0  0  0  0  0  0  0  0  0  0
   -9.0413    3.9126  -11.4364 C   0  0  0  0  0  0  0  0  0  0  0  0
   -8.8349    6.8334  -10.8696 C   0  0  0  0  0  0  0  0  0  0  0  0
   -9.2649    6.2860  -12.2302 C   0  0  0  0  0  0  0  0  0  0  0  0
   -8.5942    4.9350  -12.4912 C   0  0  2  0  0  0  0  0  0  0  0  0
   -7.3310    5.2712  -17.5244 C   0  0  0  0  0  0  0  0  0  0  0  0
   -9.3797    4.1273  -18.4209 C   0  0  0  0  0  0  0  0  0  0  0  0
   -9.5720    6.4086  -17.3880 C   0  0  0  0  0  0  0  0  0  0  0  0
   -8.8356    5.0703  -17.3499 C   0  0  0  0  0  0  0  0  0  0  0  0
   -8.9051    6.3225   -8.4979 N   0  0  0  0  0  0  0  0  0  0  0  0
   -8.9237    4.4608  -13.8344 N   0  0  0  0  0  0  0  0  0  0  0  0
   -8.0801    6.2537  -15.0418 O   0  0  0  0  0  0  0  0  0  0  0  0
   -9.1123    2.2255   -9.1317 O   0  0  0  0  0  0  0  0  0  0  0  0
   -9.0689    4.4576  -16.0768 O   0  0  0  0  0  0  0  0  0  0  0  0
   -9.0560    3.4045   -6.7882 H   0  0  0  0  0  0  0  0  0  0  0  0
   -8.9343    5.8763   -6.4858 H   0  0  0  0  0  0  0  0  0  0  0  0
   -8.4073    3.0214  -11.5247 H   0  0  0  0  0  0  0  0  0  0  0  0
  -10.0783    3.6070  -11.6288 H   0  0  0  0  0  0  0  0  0  0  0  0
   -9.4477    7.7083  -10.6227 H   0  0  0  0  0  0  0  0  0  0  0  0
   -7.7926    7.1708  -10.9278 H   0  0  0  0  0  0  0  0  0  0  0  0
  -10.3569    6.1729  -12.2533 H   0  0  0  0  0  0  0  0  0  0  0  0
   -8.9973    7.0091  -13.0098 H   0  0  0  0  0  0  0  0  0  0  0  0
   -7.5112    5.0536  -12.4684 H   0  0  0  0  0  0  0  0  0  0  0  0
   -6.9366    5.9474  -16.7575 H   0  0  0  0  0  0  0  0  0  0  0  0
   -6.7877    4.3225  -17.4641 H   0  0  0  0  0  0  0  0  0  0  0  0
   -7.1081    5.7368  -18.4913 H   0  0  0  0  0  0  0  0  0  0  0  0
  -10.4589    3.9803  -18.2995 H   0  0  0  0  0  0  0  0  0  0  0  0
   -8.9216    3.1352  -18.3366 H   0  0  0  0  0  0  0  0  0  0  0  0
   -9.1932    4.5107  -19.4293 H   0  0  0  0  0  0  0  0  0  0  0  0
  -10.6513    6.2648  -17.2628 H   0  0  0  0  0  0  0  0  0  0  0  0
   -9.2201    7.0850  -16.6023 H   0  0  0  0  0  0  0  0  0  0  0  0
   -9.4360    6.9007  -18.3578 H   0  0  0  0  0  0  0  0  0  0  0  0
   -9.3909    3.5624  -13.9237 H   0  0  0  0  0  0  0  0  0  0  0  0
   -9.1477    1.7708   -8.2760 H   0  0  0  0  0  0  0  0  0  0  0  0
  1  2  2  0  0  0  0
  1  4  1  0  0  0  0
  2 15  1  0  0  0  0
  3  4  2  0  0  0  0
  3  5  1  0  0  0  0
  3  7  1  0  0  0  0
  4 18  1  0  0  0  0
  5  8  1  0  0  0  0
  5 15  2  0  0  0  0
  6 16  1  0  0  0  0
  6 17  2  0  0  0  0
  6 19  1  0  0  0  0
  7 10  1  0  0  0  0
  8  9  1  0  0  0  0
  9 10  1  0  0  0  0
 10 16  1  0  0  0  0
 11 14  1  0  0  0  0
 12 14  1  0  0  0  0
 13 14  1  0  0  0  0
 14 19  1  0  0  0  0
  1 20  1  0  0  0  0
  2 21  1  0  0  0  0
  7 22  1  0  0  0  0
  7 23  1  0  0  0  0
  8 24  1  0  0  0  0
  8 25  1  0  0  0  0
  9 26  1  0  0  0  0
  9 27  1  0  0  0  0
 10 28  1  0  0  0  0
 11 29  1  0  0  0  0
 11 30  1  0  0  0  0
 11 31  1  0  0  0  0
 12 32  1  0  0  0  0
 12 33  1  0  0  0  0
 12 34  1  0  0  0  0
 13 35  1  0  0  0  0
 13 36  1  0  0  0  0
 13 37  1  0  0  0  0
 16 38  1  0  0  0  0
 18 39  1  0  0  0  0
M  END
> <id>
EN300-37100430

> <smiles>
CC(C)(C)OC(=O)NC1CCC=2N=CC=C(O)C2C1

> <IUPAC Name>
tert-butyl N-(4-hydroxy-5,6,7,8-tetrahydroquinolin-6-yl)carbamate

> <CAS>
2757958-23-7

> <URL>
https://www.enaminestore.com/catalog/EN300-37100430

> <ROCS_ShapeQuery>
_x0404_0B

> <ROCS_TanimotoCombo>
0.432 

> <ROCS_ShapeTanimoto>
0.334 

> <ROCS_ColorTanimoto>
0.098 

> <ROCS_RefTversky>
0.294 

> <ROCS_RefColorTversky>
0.104 

> <ROCS_RefTverskyCombo>
0.397 

> <ROCS_FitTversky>
1.703 

> <ROCS_FitColorTversky>
0.658 

> <ROCS_FitTverskyCombo>
2.361 

> <ROCS_ColorScore>
-7.489

> <ROCS_Overlap>
1957.516

> <ROCS_Rank>
379                 

$$$$
untitled-dbase-95769_535
  -OEChem-08222312023D

 45 47  0     0  0  0  0  0  0999 V2000
   -7.2712    5.1815  -16.5144 C   0  0  0  0  0  0  0  0  0  0  0  0
   -9.4842    4.2213  -16.6460 C   0  0  0  0  0  0  0  0  0  0  0  0
   -7.2473    5.3170  -17.9024 C   0  0  0  0  0  0  0  0  0  0  0  0
   -9.4605    4.3568  -18.0341 C   0  0  0  0  0  0  0  0  0  0  0  0
   -8.3896    4.6336  -15.8861 C   0  0  0  0  0  0  0  0  0  0  0  0
   -8.3420    4.9047  -18.6623 C   0  0  0  0  0  0  0  0  0  0  0  0
   -8.4147    4.4914  -14.4313 C   0  0  0  0  0  0  0  0  0  0  0  0
   -8.8498    5.3683  -13.5158 C   0  0  0  0  0  0  0  0  0  0  0  0
   -7.9592    3.2825  -13.6924 C   0  0  0  0  0  0  0  0  0  0  0  0
   -9.2634    5.5221   -8.8800 C   0  0  0  0  0  0  0  0  0  0  0  0
   -9.9451    4.8762  -11.2567 C   0  0  0  0  0  0  0  0  0  0  0  0
   -7.9691    5.7018  -11.1377 C   0  0  0  0  0  0  0  0  0  0  0  0
   -8.7017    4.8143  -12.1633 C   0  0  0  0  0  0  0  0  0  0  0  0
   -8.3168    5.0520  -20.1461 C   0  0  0  0  0  0  0  0  0  0  0  0
   -9.0952    4.6202   -6.0929 C   0  0  0  0  0  0  0  0  0  0  0  0
  -10.5790    2.7358   -6.8391 C   0  0  0  0  0  0  0  0  0  0  0  0
   -8.2731    2.9704   -7.8066 C   0  0  0  0  0  0  0  0  0  0  0  0
   -9.4890    3.7184   -7.2618 C   0  0  0  0  0  0  0  0  0  0  0  0
   -9.0851    5.4640  -10.2420 N   0  0  0  0  0  0  0  0  0  0  0  0
   -7.4918    2.2719  -14.1884 O   0  0  0  0  0  0  0  0  0  0  0  0
   -8.8201    6.4370   -8.1862 O   0  0  0  0  0  0  0  0  0  0  0  0
   -8.1406    3.4954  -12.3535 O   0  0  0  0  0  0  0  0  0  0  0  0
   -9.3948    6.6044  -13.7011 O   0  0  0  0  0  0  0  0  0  0  0  0
  -10.0289    4.5388   -8.3104 O   0  0  0  0  0  0  0  0  0  0  0  0
   -6.4102    5.5072  -15.9355 H   0  0  0  0  0  0  0  0  0  0  0  0
  -10.3634    3.7928  -16.1707 H   0  0  0  0  0  0  0  0  0  0  0  0
   -6.3720    5.7454  -18.3834 H   0  0  0  0  0  0  0  0  0  0  0  0
  -10.3176    4.0329  -18.6186 H   0  0  0  0  0  0  0  0  0  0  0  0
  -10.7554    5.5431  -11.5620 H   0  0  0  0  0  0  0  0  0  0  0  0
  -10.3558    3.9084  -10.9576 H   0  0  0  0  0  0  0  0  0  0  0  0
   -7.0245    5.2979  -10.7627 H   0  0  0  0  0  0  0  0  0  0  0  0
   -7.8441    6.7584  -11.3901 H   0  0  0  0  0  0  0  0  0  0  0  0
   -7.8974    4.1520  -20.6122 H   0  0  0  0  0  0  0  0  0  0  0  0
   -9.3255    5.2139  -20.5477 H   0  0  0  0  0  0  0  0  0  0  0  0
   -7.7114    5.9158  -20.4505 H   0  0  0  0  0  0  0  0  0  0  0  0
   -8.3130    5.3270   -6.3923 H   0  0  0  0  0  0  0  0  0  0  0  0
   -9.9516    5.1886   -5.7156 H   0  0  0  0  0  0  0  0  0  0  0  0
   -8.6799    4.0311   -5.2672 H   0  0  0  0  0  0  0  0  0  0  0  0
  -10.8646    2.0868   -7.6748 H   0  0  0  0  0  0  0  0  0  0  0  0
  -11.4882    3.2679   -6.5367 H   0  0  0  0  0  0  0  0  0  0  0  0
  -10.2531    2.1049   -6.0058 H   0  0  0  0  0  0  0  0  0  0  0  0
   -8.5553    2.3235   -8.6451 H   0  0  0  0  0  0  0  0  0  0  0  0
   -7.4952    3.6605   -8.1491 H   0  0  0  0  0  0  0  0  0  0  0  0
   -7.8439    2.3143   -7.0407 H   0  0  0  0  0  0  0  0  0  0  0  0
   -9.4464    6.8171  -14.6437 H   0  0  0  0  0  0  0  0  0  0  0  0
  1  3  1  0  0  0  0
  1  5  2  0  0  0  0
  2  4  2  0  0  0  0
  2  5  1  0  0  0  0
  3  6  2  0  0  0  0
  4  6  1  0  0  0  0
  5  7  1  0  0  0  0
  6 14  1  0  0  0  0
  7  8  2  0  0  0  0
  7  9  1  0  0  0  0
  8 13  1  0  0  0  0
  8 23  1  0  0  0  0
  9 20  2  0  0  0  0
  9 22  1  0  0  0  0
 10 19  1  0  0  0  0
 10 21  2  0  0  0  0
 10 24  1  0  0  0  0
 11 13  1  0  0  0  0
 11 19  1  0  0  0  0
 12 13  1  0  0  0  0
 12 19  1  0  0  0  0
 13 22  1  0  0  0  0
 15 18  1  0  0  0  0
 16 18  1  0  0  0  0
 17 18  1  0  0  0  0
 18 24  1  0  0  0  0
  1 25  1  0  0  0  0
  2 26  1  0  0  0  0
  3 27  1  0  0  0  0
  4 28  1  0  0  0  0
 11 29  1  0  0  0  0
 11 30  1  0  0  0  0
 12 31  1  0  0  0  0
 12 32  1  0  0  0  0
 14 33  1  0  0  0  0
 14 34  1  0  0  0  0
 14 35  1  0  0  0  0
 15 36  1  0  0  0  0
 15 37  1  0  0  0  0
 15 38  1  0  0  0  0
 16 39  1  0  0  0  0
 16 40  1  0  0  0  0
 16 41  1  0  0  0  0
 17 42  1  0  0  0  0
 17 43  1  0  0  0  0
 17 44  1  0  0  0  0
 23 45  1  0  0  0  0
M  END
> <id>
EN300-1647759

> <smiles>
CC=1C=CC(=CC1)C2=C(O)C3(CN(C3)C(=O)OC(C)(C)C)OC2=O

> <IUPAC Name>
tert-butyl 8-hydroxy-7-(4-methylphenyl)-6-oxo-5-oxa-2-azaspiro[3.4]oct-7-ene-2-carboxylate

> <CAS>
2172563-71-0

> <URL>
https://www.enaminestore.com/catalog/EN300-1647759

> <ROCS_ShapeQuery>
_x0404_0B

> <ROCS_TanimotoCombo>
0.432 

> <ROCS_ShapeTanimoto>
0.355 

> <ROCS_ColorTanimoto>
0.077 

> <ROCS_RefTversky>
0.317 

> <ROCS_RefColorTversky>
0.082 

> <ROCS_RefTverskyCombo>
0.399 

> <ROCS_FitTversky>
1.522 

> <ROCS_FitColorTversky>
0.566 

> <ROCS_FitTverskyCombo>
2.088 

> <ROCS_ColorScore>
-5.908

> <ROCS_Overlap>
2116.222

> <ROCS_Rank>
380                 

$$$$
untitled-dbase-91467_4422
  -OEChem-08222312023D

 49 51  0     0  0  0  0  0  0999 V2000
   -9.8463    3.8485  -18.1167 C   0  0  0  0  0  0  0  0  0  0  0  0
   -9.9416    4.4148  -16.8504 C   0  0  0  0  0  0  0  0  0  0  0  0
   -7.6906    4.8290  -18.3361 C   0  0  0  0  0  0  0  0  0  0  0  0
   -8.7027    4.0548  -18.8802 C   0  0  0  0  0  0  0  0  0  0  0  0
   -8.8740    5.1728  -16.3971 C   0  0  0  0  0  0  0  0  0  0  0  0
   -8.6074    5.1805   -8.6710 C   0  0  0  0  0  0  0  0  0  0  0  0
   -9.0492    6.6538  -11.9349 C   0  0  0  0  0  0  0  0  0  0  0  0
   -9.6680    4.2049  -12.0070 C   0  0  0  0  0  0  0  0  0  0  0  0
  -10.1297    5.6688  -14.0691 C   0  0  0  0  0  0  0  0  0  0  0  0
   -8.0606    5.1392  -13.8266 C   0  0  0  0  0  0  0  0  0  0  0  0
   -8.0784    6.3495  -10.7958 C   0  0  0  0  0  0  0  0  0  0  0  0
   -8.6762    3.9434  -10.8761 C   0  0  0  0  0  0  0  0  0  0  0  0
   -8.8549    5.8810  -14.9565 C   0  0  0  0  0  0  0  0  0  0  0  0
   -9.2240    5.4195  -12.8333 C   0  0  0  0  0  0  0  0  0  0  0  0
  -10.7369    3.8329   -7.9382 C   0  0  0  0  0  0  0  0  0  0  0  0
   -9.2593    1.8681   -7.4232 C   0  0  0  0  0  0  0  0  0  0  0  0
   -9.2866    3.8505   -5.8813 C   0  0  0  0  0  0  0  0  0  0  0  0
   -9.4078    3.3852   -7.3317 C   0  0  0  0  0  0  0  0  0  0  0  0
   -7.7470    5.3954  -17.1099 N   0  0  0  0  0  0  0  0  0  0  0  0
   -8.4820    5.1492  -10.0632 N   0  0  0  0  0  0  0  0  0  0  0  0
   -8.9219    6.1792   -8.0261 O   0  0  0  0  0  0  0  0  0  0  0  0
   -8.4893    7.2801  -15.0932 O   0  0  0  0  0  0  0  0  0  0  0  0
   -8.3416    3.9695   -8.0887 O   0  0  0  0  0  0  0  0  0  0  0  0
   -8.5351    3.3052  -20.5997 Br  0  0  0  0  0  0  0  0  0  0  0  0
  -10.6709    3.2497  -18.4942 H   0  0  0  0  0  0  0  0  0  0  0  0
  -10.8262    4.2641  -16.2416 H   0  0  0  0  0  0  0  0  0  0  0  0
   -6.7723    5.0281  -18.8803 H   0  0  0  0  0  0  0  0  0  0  0  0
  -10.0054    6.9813  -11.5136 H   0  0  0  0  0  0  0  0  0  0  0  0
   -8.6612    7.4920  -12.5275 H   0  0  0  0  0  0  0  0  0  0  0  0
   -9.7332    3.3172  -12.6496 H   0  0  0  0  0  0  0  0  0  0  0  0
  -10.6679    4.3617  -11.5839 H   0  0  0  0  0  0  0  0  0  0  0  0
  -10.7945    6.5375  -14.0042 H   0  0  0  0  0  0  0  0  0  0  0  0
  -10.7410    4.8071  -14.3693 H   0  0  0  0  0  0  0  0  0  0  0  0
   -7.8829    4.0770  -14.0336 H   0  0  0  0  0  0  0  0  0  0  0  0
   -7.0998    5.5911  -13.5603 H   0  0  0  0  0  0  0  0  0  0  0  0
   -7.0654    6.2531  -11.1977 H   0  0  0  0  0  0  0  0  0  0  0  0
   -8.0617    7.1730  -10.0716 H   0  0  0  0  0  0  0  0  0  0  0  0
   -9.0502    3.1627  -10.2051 H   0  0  0  0  0  0  0  0  0  0  0  0
   -7.7244    3.5985  -11.2884 H   0  0  0  0  0  0  0  0  0  0  0  0
  -10.8473    4.9214   -7.8745 H   0  0  0  0  0  0  0  0  0  0  0  0
  -10.8214    3.5357   -8.9886 H   0  0  0  0  0  0  0  0  0  0  0  0
  -11.5821    3.4038   -7.3881 H   0  0  0  0  0  0  0  0  0  0  0  0
   -8.3071    1.5424   -6.9891 H   0  0  0  0  0  0  0  0  0  0  0  0
   -9.2506    1.5391   -8.4686 H   0  0  0  0  0  0  0  0  0  0  0  0
  -10.0722    1.3505   -6.9036 H   0  0  0  0  0  0  0  0  0  0  0  0
   -8.3333    3.5295   -5.4460 H   0  0  0  0  0  0  0  0  0  0  0  0
   -9.3539    4.9403   -5.8004 H   0  0  0  0  0  0  0  0  0  0  0  0
  -10.0744    3.4060   -5.2624 H   0  0  0  0  0  0  0  0  0  0  0  0
   -9.1655    7.6624  -15.6624 H   0  0  0  0  0  0  0  0  0  0  0  0
  1  2  1  0  0  0  0
  1  4  2  0  0  0  0
  2  5  2  0  0  0  0
  3  4  1  0  0  0  0
  3 19  2  0  0  0  0
  4 24  1  0  0  0  0
  5 13  1  0  0  0  0
  5 19  1  0  0  0  0
  6 20  1  0  0  0  0
  6 21  2  0  0  0  0
  6 23  1  0  0  0  0
  7 11  1  0  0  0  0
  7 14  1  0  0  0  0
  8 12  1  0  0  0  0
  8 14  1  0  0  0  0
  9 13  1  0  0  0  0
  9 14  1  0  0  0  0
 10 13  1  0  0  0  0
 10 14  1  0  0  0  0
 11 20  1  0  0  0  0
 12 20  1  0  0  0  0
 13 22  1  0  0  0  0
 15 18  1  0  0  0  0
 16 18  1  0  0  0  0
 17 18  1  0  0  0  0
 18 23  1  0  0  0  0
  1 25  1  0  0  0  0
  2 26  1  0  0  0  0
  3 27  1  0  0  0  0
  7 28  1  0  0  0  0
  7 29  1  0  0  0  0
  8 30  1  0  0  0  0
  8 31  1  0  0  0  0
  9 32  1  0  0  0  0
  9 33  1  0  0  0  0
 10 34  1  0  0  0  0
 10 35  1  0  0  0  0
 11 36  1  0  0  0  0
 11 37  1  0  0  0  0
 12 38  1  0  0  0  0
 12 39  1  0  0  0  0
 15 40  1  0  0  0  0
 15 41  1  0  0  0  0
 15 42  1  0  0  0  0
 16 43  1  0  0  0  0
 16 44  1  0  0  0  0
 16 45  1  0  0  0  0
 17 46  1  0  0  0  0
 17 47  1  0  0  0  0
 17 48  1  0  0  0  0
 22 49  1  0  0  0  0
M  END
> <id>
EN300-7428196

> <smiles>
CC(C)(C)OC(=O)N1CCC2(CC(O)(C2)C=3C=CC(Br)=CN3)CC1

> <IUPAC Name>
tert-butyl 2-(5-bromopyridin-2-yl)-2-hydroxy-7-azaspiro[3.5]nonane-7-carboxylate

> <CAS>
2309468-99-1

> <URL>
https://www.enaminestore.com/catalog/EN300-7428196

> <ROCS_ShapeQuery>
_x0404_0B

> <ROCS_TanimotoCombo>
0.432 

> <ROCS_ShapeTanimoto>
0.367 

> <ROCS_ColorTanimoto>
0.066 

> <ROCS_RefTversky>
0.323 

> <ROCS_RefColorTversky>
0.072 

> <ROCS_RefTverskyCombo>
0.395 

> <ROCS_FitTversky>
1.596 

> <ROCS_FitColorTversky>
0.423 

> <ROCS_FitTverskyCombo>
2.019 

> <ROCS_ColorScore>
-5.214

> <ROCS_Overlap>
2153.735

> <ROCS_Rank>
381                 

$$$$
untitled-dbase-154476_262
  -OEChem-08222312023D

 45 46  0     0  0  0  0  0  0999 V2000
   -7.8756    3.4143  -14.0919 C   0  0  0  0  0  0  0  0  0  0  0  0
   -8.3959    5.1585  -12.8492 C   0  0  0  0  0  0  0  0  0  0  0  0
   -8.2718    3.9987  -12.0917 C   0  0  0  0  0  0  0  0  0  0  0  0
   -8.7212    6.3539  -12.2266 C   0  0  0  0  0  0  0  0  0  0  0  0
   -8.7664    5.1738  -10.2402 C   0  0  0  0  0  0  0  0  0  0  0  0
   -8.1386    5.5840  -15.2885 C   0  0  0  0  0  0  0  0  0  0  0  0
   -8.8912    4.1733   -7.9393 C   0  0  0  0  0  0  0  0  0  0  0  0
   -6.7522    6.6693  -17.5114 C   0  0  0  0  0  0  0  0  0  0  0  0
   -7.4518    4.5855  -18.7268 C   0  0  0  0  0  0  0  0  0  0  0  0
   -9.1948    6.1727  -17.8603 C   0  0  0  0  0  0  0  0  0  0  0  0
  -10.8474    2.4286   -9.0834 C   0  0  0  0  0  0  0  0  0  0  0  0
   -8.9679    0.7793   -9.3218 C   0  0  0  0  0  0  0  0  0  0  0  0
   -9.6615    1.5636   -7.0389 C   0  0  0  0  0  0  0  0  0  0  0  0
   -7.8107    5.5725  -17.6181 C   0  0  0  0  0  0  0  0  0  0  0  0
   -9.5141    1.9515   -8.5094 C   0  0  0  0  0  0  0  0  0  0  0  0
   -7.9493    2.9272  -12.8737 N   0  0  0  0  0  0  0  0  0  0  0  0
   -8.4542    3.9663  -10.7500 N   0  0  0  0  0  0  0  0  0  0  0  0
   -8.9096    6.3508  -10.8881 N   0  0  0  0  0  0  0  0  0  0  0  0
   -8.1364    4.7710  -14.1511 N   0  0  0  0  0  0  0  0  0  0  0  0
   -8.9704    5.2153   -8.8508 N   0  0  0  0  0  0  0  0  0  0  0  0
   -8.3856    6.7765  -15.2139 O   0  0  0  0  0  0  0  0  0  0  0  0
   -9.0723    4.2267   -6.7290 O   0  0  0  0  0  0  0  0  0  0  0  0
   -7.8386    4.8454  -16.3863 O   0  0  0  0  0  0  0  0  0  0  0  0
   -8.5671    3.0218   -8.6060 O   0  0  0  0  0  0  0  0  0  0  0  0
   -8.9311    7.9011  -12.9096 Cl  0  0  0  0  0  0  0  0  0  0  0  0
   -7.6359    2.8211  -14.9647 H   0  0  0  0  0  0  0  0  0  0  0  0
   -7.0062    7.3799  -16.7166 H   0  0  0  0  0  0  0  0  0  0  0  0
   -5.7608    6.2543  -17.3029 H   0  0  0  0  0  0  0  0  0  0  0  0
   -6.6962    7.2503  -18.4390 H   0  0  0  0  0  0  0  0  0  0  0  0
   -8.2085    3.7967  -18.8069 H   0  0  0  0  0  0  0  0  0  0  0  0
   -6.5030    4.0819  -18.5090 H   0  0  0  0  0  0  0  0  0  0  0  0
   -7.3654    5.0830  -19.6982 H   0  0  0  0  0  0  0  0  0  0  0  0
   -9.9542    5.3861  -17.9369 H   0  0  0  0  0  0  0  0  0  0  0  0
   -9.4847    6.8557  -17.0552 H   0  0  0  0  0  0  0  0  0  0  0  0
   -9.2211    6.7213  -18.8088 H   0  0  0  0  0  0  0  0  0  0  0  0
  -11.2427    3.2700   -8.5030 H   0  0  0  0  0  0  0  0  0  0  0  0
  -10.7478    2.7428  -10.1275 H   0  0  0  0  0  0  0  0  0  0  0  0
  -11.6019    1.6354   -9.0311 H   0  0  0  0  0  0  0  0  0  0  0  0
   -8.0114    0.4337   -8.9136 H   0  0  0  0  0  0  0  0  0  0  0  0
   -8.7710    1.0802  -10.3572 H   0  0  0  0  0  0  0  0  0  0  0  0
   -9.6654   -0.0645   -9.3327 H   0  0  0  0  0  0  0  0  0  0  0  0
   -8.7053    1.2213   -6.6269 H   0  0  0  0  0  0  0  0  0  0  0  0
  -10.0174    2.4038   -6.4339 H   0  0  0  0  0  0  0  0  0  0  0  0
  -10.3637    0.7299   -6.9243 H   0  0  0  0  0  0  0  0  0  0  0  0
   -9.2071    6.1294   -8.4626 H   0  0  0  0  0  0  0  0  0  0  0  0
  1 16  2  0  0  0  0
  1 19  1  0  0  0  0
  2  3  1  0  0  0  0
  2  4  2  0  0  0  0
  2 19  1  0  0  0  0
  3 16  1  0  0  0  0
  3 17  2  0  0  0  0
  4 18  1  0  0  0  0
  4 25  1  0  0  0  0
  5 17  1  0  0  0  0
  5 18  2  0  0  0  0
  5 20  1  0  0  0  0
  6 19  1  0  0  0  0
  6 21  2  0  0  0  0
  6 23  1  0  0  0  0
  7 20  1  0  0  0  0
  7 22  2  0  0  0  0
  7 24  1  0  0  0  0
  8 14  1  0  0  0  0
  9 14  1  0  0  0  0
 10 14  1  0  0  0  0
 11 15  1  0  0  0  0
 12 15  1  0  0  0  0
 13 15  1  0  0  0  0
 14 23  1  0  0  0  0
 15 24  1  0  0  0  0
  1 26  1  0  0  0  0
  8 27  1  0  0  0  0
  8 28  1  0  0  0  0
  8 29  1  0  0  0  0
  9 30  1  0  0  0  0
  9 31  1  0  0  0  0
  9 32  1  0  0  0  0
 10 33  1  0  0  0  0
 10 34  1  0  0  0  0
 10 35  1  0  0  0  0
 11 36  1  0  0  0  0
 11 37  1  0  0  0  0
 11 38  1  0  0  0  0
 12 39  1  0  0  0  0
 12 40  1  0  0  0  0
 12 41  1  0  0  0  0
 13 42  1  0  0  0  0
 13 43  1  0  0  0  0
 13 44  1  0  0  0  0
 20 45  1  0  0  0  0
M  END
> <id>
EN300-28300810

> <smiles>
CC(C)(C)OC(=O)NC=1N=C(Cl)C=2N(C=NC2N1)C(=O)OC(C)(C)C

> <IUPAC Name>
tert-butyl 2-{[(tert-butoxy)carbonyl]amino}-6-chloro-7H-purine-7-carboxylate

> <CAS>
2680755-94-4

> <URL>
https://www.enaminestore.com/catalog/EN300-28300810

> <ROCS_ShapeQuery>
_x0404_0B

> <ROCS_TanimotoCombo>
0.432 

> <ROCS_ShapeTanimoto>
0.379 

> <ROCS_ColorTanimoto>
0.054 

> <ROCS_RefTversky>
0.334 

> <ROCS_RefColorTversky>
0.061 

> <ROCS_RefTverskyCombo>
0.395 

> <ROCS_FitTversky>
1.552 

> <ROCS_FitColorTversky>
0.310 

> <ROCS_FitTverskyCombo>
1.862 

> <ROCS_ColorScore>
-4.423

> <ROCS_Overlap>
2229.457

> <ROCS_Rank>
382                 

$$$$
untitled-dbase-91727_661
  -OEChem-08222312023D

 49 51  0     1  0  0  0  0  0999 V2000
   -8.6753    4.6493   -7.8242 C   0  0  0  0  0  0  0  0  0  0  0  0
   -9.1284    3.7926   -6.8272 C   0  0  0  0  0  0  0  0  0  0  0  0
   -8.9839    2.8947   -9.3998 C   0  0  0  0  0  0  0  0  0  0  0  0
   -8.5987    4.1995   -9.1376 C   0  0  0  0  0  0  0  0  0  0  0  0
   -9.4901    2.5060   -7.1928 C   0  0  0  0  0  0  0  0  0  0  0  0
   -8.2433    4.9523  -16.1319 C   0  0  0  0  0  0  0  0  0  0  0  0
   -8.9761    7.0435  -11.6997 C   0  0  0  0  0  0  0  0  0  0  0  0
   -9.0444    6.3513  -10.3385 C   0  0  0  0  0  0  0  0  0  0  0  0
   -7.9137    4.4492  -11.6472 C   0  0  0  0  0  0  0  0  0  0  0  0
   -8.6959    6.3759  -14.1412 C   0  0  0  0  0  0  0  0  0  0  0  0
   -8.9907    3.9928  -13.9212 C   0  0  0  0  0  0  0  0  0  0  0  0
   -9.4225    6.1047  -12.8245 C   0  0  1  0  0  0  0  0  0  0  0  0
   -9.1505    4.6157  -12.5359 C   0  0  2  0  0  0  0  0  0  0  0  0
   -8.1050    5.1174  -10.2580 C   0  0  2  0  0  0  0  0  0  0  0  0
   -8.1168    5.9834  -18.7945 C   0  0  0  0  0  0  0  0  0  0  0  0
   -5.9484    7.0353  -18.0871 C   0  0  0  0  0  0  0  0  0  0  0  0
   -6.1862    4.5350  -18.0808 C   0  0  0  0  0  0  0  0  0  0  0  0
   -6.9063    5.8660  -17.8695 C   0  0  0  0  0  0  0  0  0  0  0  0
   -9.4292    2.0332   -8.4579 N   0  0  0  0  0  0  0  0  0  0  0  0
   -8.6268    5.0883  -14.8076 N   0  0  0  0  0  0  0  0  0  0  0  0
   -8.6430    4.0616  -16.8785 O   0  0  0  0  0  0  0  0  0  0  0  0
   -6.7952    5.5669   -9.8651 O   0  0  0  0  0  0  0  0  0  0  0  0
   -7.3614    5.9278  -16.5133 O   0  0  0  0  0  0  0  0  0  0  0  0
  -10.1109    1.3190   -5.8466 Br  0  0  0  0  0  0  0  0  0  0  0  0
   -8.3847    5.6649   -7.5688 H   0  0  0  0  0  0  0  0  0  0  0  0
   -9.1897    4.1395   -5.8012 H   0  0  0  0  0  0  0  0  0  0  0  0
   -8.9465    2.4889  -10.4061 H   0  0  0  0  0  0  0  0  0  0  0  0
   -9.6383    7.9037  -11.6878 H   0  0  0  0  0  0  0  0  0  0  0  0
   -7.9701    7.4004  -11.8855 H   0  0  0  0  0  0  0  0  0  0  0  0
   -8.7814    7.0605   -9.5506 H   0  0  0  0  0  0  0  0  0  0  0  0
  -10.0731    6.0462  -10.1355 H   0  0  0  0  0  0  0  0  0  0  0  0
   -7.6983    3.3846  -11.5143 H   0  0  0  0  0  0  0  0  0  0  0  0
   -7.0233    4.8686  -12.1259 H   0  0  0  0  0  0  0  0  0  0  0  0
   -9.2265    7.1053  -14.7699 H   0  0  0  0  0  0  0  0  0  0  0  0
   -7.6671    6.7367  -13.9979 H   0  0  0  0  0  0  0  0  0  0  0  0
   -8.2426    3.1885  -13.9711 H   0  0  0  0  0  0  0  0  0  0  0  0
   -9.9462    3.5870  -14.2863 H   0  0  0  0  0  0  0  0  0  0  0  0
  -10.4882    6.2530  -12.9866 H   0  0  0  0  0  0  0  0  0  0  0  0
  -10.0250    4.1769  -12.0121 H   0  0  0  0  0  0  0  0  0  0  0  0
   -8.8069    5.1459  -18.6414 H   0  0  0  0  0  0  0  0  0  0  0  0
   -8.6622    6.9182  -18.6284 H   0  0  0  0  0  0  0  0  0  0  0  0
   -7.8107    5.9434  -19.8461 H   0  0  0  0  0  0  0  0  0  0  0  0
   -5.0783    6.9552  -17.4254 H   0  0  0  0  0  0  0  0  0  0  0  0
   -6.4336    7.9877  -17.8448 H   0  0  0  0  0  0  0  0  0  0  0  0
   -5.5940    7.0801  -19.1219 H   0  0  0  0  0  0  0  0  0  0  0  0
   -5.3178    4.4506  -17.4174 H   0  0  0  0  0  0  0  0  0  0  0  0
   -6.8486    3.6838  -17.8930 H   0  0  0  0  0  0  0  0  0  0  0  0
   -5.8020    4.4580  -19.1044 H   0  0  0  0  0  0  0  0  0  0  0  0
   -6.9049    6.0381   -9.0245 H   0  0  0  0  0  0  0  0  0  0  0  0
  1  2  1  0  0  0  0
  1  4  2  0  0  0  0
  2  5  2  0  0  0  0
  3  4  1  0  0  0  0
  3 19  2  0  0  0  0
  4 14  1  0  0  0  0
  5 19  1  0  0  0  0
  5 24  1  0  0  0  0
  6 20  1  0  0  0  0
  6 21  2  0  0  0  0
  6 23  1  0  0  0  0
  7  8  1  0  0  0  0
  7 12  1  0  0  0  0
  8 14  1  0  0  0  0
  9 13  1  0  0  0  0
  9 14  1  0  0  0  0
 10 12  1  0  0  0  0
 10 20  1  0  0  0  0
 11 13  1  0  0  0  0
 11 20  1  0  0  0  0
 12 13  1  0  0  0  0
 14 22  1  0  0  0  0
 15 18  1  0  0  0  0
 16 18  1  0  0  0  0
 17 18  1  0  0  0  0
 18 23  1  0  0  0  0
  1 25  1  0  0  0  0
  2 26  1  0  0  0  0
  3 27  1  0  0  0  0
  7 28  1  0  0  0  0
  7 29  1  0  0  0  0
  8 30  1  0  0  0  0
  8 31  1  0  0  0  0
  9 32  1  0  0  0  0
  9 33  1  0  0  0  0
 10 34  1  0  0  0  0
 10 35  1  0  0  0  0
 11 36  1  0  0  0  0
 11 37  1  0  0  0  0
 12 38  1  0  0  0  0
 13 39  1  0  0  0  0
 15 40  1  0  0  0  0
 15 41  1  0  0  0  0
 15 42  1  0  0  0  0
 16 43  1  0  0  0  0
 16 44  1  0  0  0  0
 16 45  1  0  0  0  0
 17 46  1  0  0  0  0
 17 47  1  0  0  0  0
 17 48  1  0  0  0  0
 22 49  1  0  0  0  0
M  END
> <id>
EN300-7428276

> <smiles>
CC(C)(C)OC(=O)N1CC2CCC(O)(CC2C1)C=3C=CC(Br)=NC3

> <IUPAC Name>
tert-butyl 5-(6-bromopyridin-3-yl)-5-hydroxy-octahydro-1H-isoindole-2-carboxylate

> <CAS>
2309467-64-7

> <URL>
https://www.enaminestore.com/catalog/EN300-7428276

> <ROCS_ShapeQuery>
_x0404_0B

> <ROCS_TanimotoCombo>
0.432 

> <ROCS_ShapeTanimoto>
0.376 

> <ROCS_ColorTanimoto>
0.056 

> <ROCS_RefTversky>
0.329 

> <ROCS_RefColorTversky>
0.062 

> <ROCS_RefTverskyCombo>
0.391 

> <ROCS_FitTversky>
1.617 

> <ROCS_FitColorTversky>
0.365 

> <ROCS_FitTverskyCombo>
1.982 

> <ROCS_ColorScore>
-4.510

> <ROCS_Overlap>
2196.255

> <ROCS_Rank>
383                 

$$$$
untitled-dbase-29609_681
  -OEChem-08222312023D

 57 59  0     0  0  0  0  0  0999 V2000
   -8.4112    5.8961  -15.6429 B   0  0  0  0  0  0  0  0  0  0  0  0
   -8.7211    8.9745  -13.4148 C   0  0  0  0  0  0  0  0  0  0  0  0
   -8.6534    8.1269  -14.5179 C   0  0  0  0  0  0  0  0  0  0  0  0
   -8.6287    8.4518  -12.1229 C   0  0  0  0  0  0  0  0  0  0  0  0
   -8.4958    6.7559  -14.3314 C   0  0  0  0  0  0  0  0  0  0  0  0
   -8.4830    7.0716  -11.9121 C   0  0  0  0  0  0  0  0  0  0  0  0
   -8.4260    6.2335  -13.0370 C   0  0  0  0  0  0  0  0  0  0  0  0
   -8.0227    4.4042   -9.3256 C   0  0  0  0  0  0  0  0  0  0  0  0
   -8.3370    6.5718  -10.4920 C   0  0  0  0  0  0  0  0  0  0  0  0
   -9.8412    4.6541  -11.0456 C   0  0  0  0  0  0  0  0  0  0  0  0
   -9.3735    4.1914  -12.4241 C   0  0  0  0  0  0  0  0  0  0  0  0
   -7.5670    4.9773  -17.5633 C   0  0  0  0  0  0  0  0  0  0  0  0
   -9.0231    4.4581  -17.3171 C   0  0  0  0  0  0  0  0  0  0  0  0
   -6.4511    3.9561  -17.2472 C   0  0  0  0  0  0  0  0  0  0  0  0
   -7.3137    5.5304  -18.9728 C   0  0  0  0  0  0  0  0  0  0  0  0
   -9.1805    2.9328  -17.3902 C   0  0  0  0  0  0  0  0  0  0  0  0
  -10.1006    5.0899  -18.2269 C   0  0  0  0  0  0  0  0  0  0  0  0
   -9.5323    3.9434   -7.2303 C   0  0  0  0  0  0  0  0  0  0  0  0
  -10.0907    1.6884   -8.1854 C   0  0  0  0  0  0  0  0  0  0  0  0
   -7.8274    2.0927   -7.1744 C   0  0  0  0  0  0  0  0  0  0  0  0
   -8.9840    2.7152   -7.9553 C   0  0  0  0  0  0  0  0  0  0  0  0
   -8.7204    5.1746  -10.2624 N   0  0  0  0  0  0  0  0  0  0  0  0
   -7.0793    4.8177   -8.6539 O   0  0  0  0  0  0  0  0  0  0  0  0
   -7.4224    6.0787  -16.6096 O   0  0  0  0  0  0  0  0  0  0  0  0
   -9.3180    4.8807  -15.9467 O   0  0  0  0  0  0  0  0  0  0  0  0
   -8.2187    4.8851  -12.9171 O   0  0  0  0  0  0  0  0  0  0  0  0
   -8.4997    3.1227   -9.2399 O   0  0  0  0  0  0  0  0  0  0  0  0
   -8.8360   10.0447  -13.5583 H   0  0  0  0  0  0  0  0  0  0  0  0
   -8.7233    8.5714  -15.5092 H   0  0  0  0  0  0  0  0  0  0  0  0
   -8.6626    9.1358  -11.2762 H   0  0  0  0  0  0  0  0  0  0  0  0
   -7.2803    6.7030  -10.1643 H   0  0  0  0  0  0  0  0  0  0  0  0
   -8.9130    7.2260   -9.7998 H   0  0  0  0  0  0  0  0  0  0  0  0
  -10.6021    5.4308  -11.1635 H   0  0  0  0  0  0  0  0  0  0  0  0
  -10.2837    3.8244  -10.4845 H   0  0  0  0  0  0  0  0  0  0  0  0
   -9.0795    3.1275  -12.3507 H   0  0  0  0  0  0  0  0  0  0  0  0
  -10.2028    4.2072  -13.1640 H   0  0  0  0  0  0  0  0  0  0  0  0
   -5.4902    4.4121  -17.4501 H   0  0  0  0  0  0  0  0  0  0  0  0
   -6.5865    3.0831  -17.8733 H   0  0  0  0  0  0  0  0  0  0  0  0
   -6.5160    3.6772  -16.2030 H   0  0  0  0  0  0  0  0  0  0  0  0
   -6.2832    5.8648  -19.0497 H   0  0  0  0  0  0  0  0  0  0  0  0
   -7.9814    6.3668  -19.1578 H   0  0  0  0  0  0  0  0  0  0  0  0
   -7.4977    4.7500  -19.7054 H   0  0  0  0  0  0  0  0  0  0  0  0
  -10.2178    2.6676  -17.2077 H   0  0  0  0  0  0  0  0  0  0  0  0
   -8.5495    2.4682  -16.6382 H   0  0  0  0  0  0  0  0  0  0  0  0
   -8.8853    2.5861  -18.3763 H   0  0  0  0  0  0  0  0  0  0  0  0
  -11.0645    4.6650  -17.9765 H   0  0  0  0  0  0  0  0  0  0  0  0
   -9.8577    4.8749  -19.2599 H   0  0  0  0  0  0  0  0  0  0  0  0
  -10.1137    6.1603  -18.0641 H   0  0  0  0  0  0  0  0  0  0  0  0
   -8.7409    4.6829   -7.0632 H   0  0  0  0  0  0  0  0  0  0  0  0
  -10.3391    4.4196   -7.7970 H   0  0  0  0  0  0  0  0  0  0  0  0
   -9.9173    3.6736   -6.2402 H   0  0  0  0  0  0  0  0  0  0  0  0
   -9.7018    0.8054   -8.7053 H   0  0  0  0  0  0  0  0  0  0  0  0
  -10.8791    2.1010   -8.8253 H   0  0  0  0  0  0  0  0  0  0  0  0
  -10.5435    1.3642   -7.2427 H   0  0  0  0  0  0  0  0  0  0  0  0
   -7.4340    1.2117   -7.6942 H   0  0  0  0  0  0  0  0  0  0  0  0
   -7.0079    2.8045   -7.0317 H   0  0  0  0  0  0  0  0  0  0  0  0
   -8.1634    1.7467   -6.1902 H   0  0  0  0  0  0  0  0  0  0  0  0
  1  5  1  0  0  0  0
  1 24  1  0  0  0  0
  1 25  1  0  0  0  0
  2  3  2  0  0  0  0
  2  4  1  0  0  0  0
  3  5  1  0  0  0  0
  4  6  2  0  0  0  0
  5  7  2  0  0  0  0
  6  7  1  0  0  0  0
  6  9  1  0  0  0  0
  7 26  1  0  0  0  0
  8 22  1  0  0  0  0
  8 23  2  0  0  0  0
  8 27  1  0  0  0  0
  9 22  1  0  0  0  0
 10 11  1  0  0  0  0
 10 22  1  0  0  0  0
 11 26  1  0  0  0  0
 12 13  1  0  0  0  0
 12 14  1  0  0  0  0
 12 15  1  0  0  0  0
 12 24  1  0  0  0  0
 13 16  1  0  0  0  0
 13 17  1  0  0  0  0
 13 25  1  0  0  0  0
 18 21  1  0  0  0  0
 19 21  1  0  0  0  0
 20 21  1  0  0  0  0
 21 27  1  0  0  0  0
  2 28  1  0  0  0  0
  3 29  1  0  0  0  0
  4 30  1  0  0  0  0
  9 31  1  0  0  0  0
  9 32  1  0  0  0  0
 10 33  1  0  0  0  0
 10 34  1  0  0  0  0
 11 35  1  0  0  0  0
 11 36  1  0  0  0  0
 14 37  1  0  0  0  0
 14 38  1  0  0  0  0
 14 39  1  0  0  0  0
 15 40  1  0  0  0  0
 15 41  1  0  0  0  0
 15 42  1  0  0  0  0
 16 43  1  0  0  0  0
 16 44  1  0  0  0  0
 16 45  1  0  0  0  0
 17 46  1  0  0  0  0
 17 47  1  0  0  0  0
 17 48  1  0  0  0  0
 18 49  1  0  0  0  0
 18 50  1  0  0  0  0
 18 51  1  0  0  0  0
 19 52  1  0  0  0  0
 19 53  1  0  0  0  0
 19 54  1  0  0  0  0
 20 55  1  0  0  0  0
 20 56  1  0  0  0  0
 20 57  1  0  0  0  0
M  END
> <id>
EN300-393329

> <smiles>
CC(C)(C)OC(=O)N1CCOC=2C(=CC=CC2C1)B3OC(C)(C)C(C)(C)O3

> <MDLNUMBER>
MFCD31381356

> <IUPAC Name>
tert-butyl 9-(tetramethyl-1,3,2-dioxaborolan-2-yl)-2,3,4,5-tetrahydro-1,4-benzoxazepine-4-carboxylate

> <Purity>
95

> <URL>
https://www.enaminestore.com/catalog/EN300-393329

> <ROCS_ShapeQuery>
_x0404_0B

> <ROCS_TanimotoCombo>
0.432 

> <ROCS_ShapeTanimoto>
0.397 

> <ROCS_ColorTanimoto>
0.035 

> <ROCS_RefTversky>
0.348 

> <ROCS_RefColorTversky>
0.039 

> <ROCS_RefTverskyCombo>
0.387 

> <ROCS_FitTversky>
1.551 

> <ROCS_FitColorTversky>
0.248 

> <ROCS_FitTverskyCombo>
1.799 

> <ROCS_ColorScore>
-2.821

> <ROCS_Overlap>
2328.044

> <ROCS_Rank>
384                 

$$$$
untitled-dbase-21003_9
  -OEChem-08222312023D

 34 37  0     0  0  0  0  0  0999 V2000
   -6.9639    5.3071  -14.8149 C   0  0  0  0  0  0  0  0  0  0  0  0
   -8.6577    3.0901   -9.6652 C   0  0  0  0  0  0  0  0  0  0  0  0
   -6.7618    5.2482  -16.1941 C   0  0  0  0  0  0  0  0  0  0  0  0
   -8.9087    3.2972   -8.3081 C   0  0  0  0  0  0  0  0  0  0  0  0
   -9.3321    4.9431  -15.1393 C   0  0  0  0  0  0  0  0  0  0  0  0
   -9.1761    5.6666   -8.7081 C   0  0  0  0  0  0  0  0  0  0  0  0
   -8.2462    5.1496  -14.2881 C   0  0  0  0  0  0  0  0  0  0  0  0
   -8.6675    4.1776  -10.5428 C   0  0  0  0  0  0  0  0  0  0  0  0
   -7.8452    5.0285  -17.0453 C   0  0  0  0  0  0  0  0  0  0  0  0
   -9.1329    4.8977  -16.5195 C   0  0  0  0  0  0  0  0  0  0  0  0
   -8.9261    5.4620  -10.0654 C   0  0  0  0  0  0  0  0  0  0  0  0
   -9.1673    4.5825   -7.8303 C   0  0  0  0  0  0  0  0  0  0  0  0
   -8.7189    6.3710  -12.2210 C   0  0  0  0  0  0  0  0  0  0  0  0
   -8.4541    5.2063  -12.8320 C   0  0  0  0  0  0  0  0  0  0  0  0
   -8.4017    3.9859  -11.9805 C   0  0  0  0  0  0  0  0  0  0  0  0
   -8.6739    4.3979  -19.1194 C   0  0  0  0  0  0  0  0  0  0  0  0
   -9.9808    5.0260  -18.6760 C   0  0  0  0  0  0  0  0  0  0  0  0
   -8.1417    2.8794  -12.4351 O   0  0  0  0  0  0  0  0  0  0  0  0
   -8.9472    6.5648  -10.8802 O   0  0  0  0  0  0  0  0  0  0  0  0
   -7.5808    4.9604  -18.3883 O   0  0  0  0  0  0  0  0  0  0  0  0
  -10.2408    4.7131  -17.3049 O   0  0  0  0  0  0  0  0  0  0  0  0
   -9.4113    4.7780   -6.5054 O   0  0  0  0  0  0  0  0  0  0  0  0
   -6.1100    5.4724  -14.1621 H   0  0  0  0  0  0  0  0  0  0  0  0
   -8.4562    2.0821  -10.0171 H   0  0  0  0  0  0  0  0  0  0  0  0
   -5.7587    5.3633  -16.5955 H   0  0  0  0  0  0  0  0  0  0  0  0
   -8.8996    2.4511   -7.6259 H   0  0  0  0  0  0  0  0  0  0  0  0
  -10.3357    4.8279  -14.7355 H   0  0  0  0  0  0  0  0  0  0  0  0
   -9.3779    6.6670   -8.3339 H   0  0  0  0  0  0  0  0  0  0  0  0
   -8.7784    7.3219  -12.7375 H   0  0  0  0  0  0  0  0  0  0  0  0
   -8.6754    3.3115  -18.9666 H   0  0  0  0  0  0  0  0  0  0  0  0
   -8.4993    4.5933  -20.1820 H   0  0  0  0  0  0  0  0  0  0  0  0
   -9.9638    6.1171  -18.7892 H   0  0  0  0  0  0  0  0  0  0  0  0
  -10.8118    4.6337  -19.2703 H   0  0  0  0  0  0  0  0  0  0  0  0
   -9.3707    3.9340   -6.0281 H   0  0  0  0  0  0  0  0  0  0  0  0
  1  3  1  0  0  0  0
  1  7  2  0  0  0  0
  2  4  1  0  0  0  0
  2  8  2  0  0  0  0
  3  9  2  0  0  0  0
  4 12  2  0  0  0  0
  5  7  1  0  0  0  0
  5 10  2  0  0  0  0
  6 11  2  0  0  0  0
  6 12  1  0  0  0  0
  7 14  1  0  0  0  0
  8 11  1  0  0  0  0
  8 15  1  0  0  0  0
  9 10  1  0  0  0  0
  9 20  1  0  0  0  0
 10 21  1  0  0  0  0
 11 19  1  0  0  0  0
 12 22  1  0  0  0  0
 13 14  2  0  0  0  0
 13 19  1  0  0  0  0
 14 15  1  0  0  0  0
 15 18  2  0  0  0  0
 16 17  1  0  0  0  0
 16 20  1  0  0  0  0
 17 21  1  0  0  0  0
  1 23  1  0  0  0  0
  2 24  1  0  0  0  0
  3 25  1  0  0  0  0
  4 26  1  0  0  0  0
  5 27  1  0  0  0  0
  6 28  1  0  0  0  0
 13 29  1  0  0  0  0
 16 30  1  0  0  0  0
 16 31  1  0  0  0  0
 17 32  1  0  0  0  0
 17 33  1  0  0  0  0
 22 34  1  0  0  0  0
M  END
> <id>
EN300-303084

> <smiles>
OC=1C=CC=2C(=O)C(=COC2C1)C=3C=CC=4OCCOC4C3

> <MDLNUMBER>
MFCD00499161

> <IUPAC Name>
3-(2,3-dihydro-1,4-benzodioxin-6-yl)-7-hydroxy-4H-chromen-4-one

> <CAS>
96754-91-5

> <URL>
https://www.enaminestore.com/catalog/EN300-303084

> <ROCS_ShapeQuery>
_x0404_0B

> <ROCS_TanimotoCombo>
0.432 

> <ROCS_ShapeTanimoto>
0.373 

> <ROCS_ColorTanimoto>
0.059 

> <ROCS_RefTversky>
0.326 

> <ROCS_RefColorTversky>
0.066 

> <ROCS_RefTverskyCombo>
0.392 

> <ROCS_FitTversky>
1.631 

> <ROCS_FitColorTversky>
0.359 

> <ROCS_FitTverskyCombo>
1.989 

> <ROCS_ColorScore>
-4.766

> <ROCS_Overlap>
2178.078

> <ROCS_Rank>
385                 

$$$$
untitled-dbase-154320_80
  -OEChem-08222312023D

 49 51  0     0  0  0  0  0  0999 V2000
   -9.2699    5.7071   -8.8641 C   0  0  0  0  0  0  0  0  0  0  0  0
   -9.4199    4.4873   -8.1959 C   0  0  0  0  0  0  0  0  0  0  0  0
   -8.9505    3.2557  -10.2389 C   0  0  0  0  0  0  0  0  0  0  0  0
   -8.8141    4.4773  -10.8722 C   0  0  0  0  0  0  0  0  0  0  0  0
   -8.9684    5.6898  -10.2164 C   0  0  0  0  0  0  0  0  0  0  0  0
   -9.2603    3.2701   -8.8791 C   0  0  0  0  0  0  0  0  0  0  0  0
   -8.5108    4.7480  -12.2689 C   0  0  0  0  0  0  0  0  0  0  0  0
   -8.1841    5.4583  -16.5659 C   0  0  0  0  0  0  0  0  0  0  0  0
   -8.7219    6.8650  -11.1087 C   0  0  0  0  0  0  0  0  0  0  0  0
   -7.3694    6.7641  -13.2908 C   0  0  0  0  0  0  0  0  0  0  0  0
   -9.9114    6.5277  -13.3399 C   0  0  0  0  0  0  0  0  0  0  0  0
   -7.6164    7.0710  -14.7694 C   0  0  0  0  0  0  0  0  0  0  0  0
   -9.8498    5.9755  -14.7650 C   0  0  0  0  0  0  0  0  0  0  0  0
   -8.6206    6.2549  -12.5427 C   0  0  0  0  0  0  0  0  0  0  0  0
   -7.4872    5.5304  -19.3399 C   0  0  0  0  0  0  0  0  0  0  0  0
   -5.1118    5.7327  -18.5487 C   0  0  0  0  0  0  0  0  0  0  0  0
   -6.4452    3.6786  -17.9908 C   0  0  0  0  0  0  0  0  0  0  0  0
   -9.7260    2.1793   -6.8177 C   0  0  0  0  0  0  0  0  0  0  0  0
   -6.5010    5.1877  -18.2242 C   0  0  0  0  0  0  0  0  0  0  0  0
   -8.5312    6.1182  -15.3833 N   0  0  0  0  0  0  0  0  0  0  0  0
   -8.2368    3.8731  -13.0717 O   0  0  0  0  0  0  0  0  0  0  0  0
   -8.8993    4.6425  -17.1440 O   0  0  0  0  0  0  0  0  0  0  0  0
   -9.4097    2.0953   -8.2059 O   0  0  0  0  0  0  0  0  0  0  0  0
   -6.9412    5.8198  -17.0169 O   0  0  0  0  0  0  0  0  0  0  0  0
   -9.3894    6.6434   -8.3295 H   0  0  0  0  0  0  0  0  0  0  0  0
   -9.6639    4.4865   -7.1362 H   0  0  0  0  0  0  0  0  0  0  0  0
   -8.8210    2.3215  -10.7735 H   0  0  0  0  0  0  0  0  0  0  0  0
   -9.5552    7.5696  -11.0224 H   0  0  0  0  0  0  0  0  0  0  0  0
   -7.7999    7.3744  -10.8120 H   0  0  0  0  0  0  0  0  0  0  0  0
   -6.5535    6.0322  -13.2140 H   0  0  0  0  0  0  0  0  0  0  0  0
   -7.0090    7.6849  -12.8097 H   0  0  0  0  0  0  0  0  0  0  0  0
  -10.0779    7.6070  -13.4009 H   0  0  0  0  0  0  0  0  0  0  0  0
  -10.7745    6.0934  -12.8296 H   0  0  0  0  0  0  0  0  0  0  0  0
   -8.0002    8.0966  -14.8685 H   0  0  0  0  0  0  0  0  0  0  0  0
   -6.6757    7.0374  -15.3381 H   0  0  0  0  0  0  0  0  0  0  0  0
  -10.0974    4.8993  -14.7782 H   0  0  0  0  0  0  0  0  0  0  0  0
  -10.6299    6.4643  -15.3727 H   0  0  0  0  0  0  0  0  0  0  0  0
   -8.4855    5.1409  -19.1108 H   0  0  0  0  0  0  0  0  0  0  0  0
   -7.5626    6.6118  -19.4936 H   0  0  0  0  0  0  0  0  0  0  0  0
   -7.1841    5.0668  -20.2857 H   0  0  0  0  0  0  0  0  0  0  0  0
   -4.4010    5.4891  -17.7508 H   0  0  0  0  0  0  0  0  0  0  0  0
   -5.1291    6.8260  -18.6235 H   0  0  0  0  0  0  0  0  0  0  0  0
   -4.7284    5.3268  -19.4904 H   0  0  0  0  0  0  0  0  0  0  0  0
   -5.7379    3.4326  -17.1906 H   0  0  0  0  0  0  0  0  0  0  0  0
   -7.4266    3.2758  -17.7206 H   0  0  0  0  0  0  0  0  0  0  0  0
   -6.0903    3.1585  -18.8879 H   0  0  0  0  0  0  0  0  0  0  0  0
   -9.8172    1.1726   -6.4024 H   0  0  0  0  0  0  0  0  0  0  0  0
  -10.6645    2.7244   -6.6892 H   0  0  0  0  0  0  0  0  0  0  0  0
   -8.9238    2.7124   -6.3020 H   0  0  0  0  0  0  0  0  0  0  0  0
  1  2  1  0  0  0  0
  1  5  2  0  0  0  0
  2  6  2  0  0  0  0
  3  4  2  0  0  0  0
  3  6  1  0  0  0  0
  4  5  1  0  0  0  0
  4  7  1  0  0  0  0
  5  9  1  0  0  0  0
  6 23  1  0  0  0  0
  7 14  1  0  0  0  0
  7 21  2  0  0  0  0
  8 20  1  0  0  0  0
  8 22  2  0  0  0  0
  8 24  1  0  0  0  0
  9 14  1  0  0  0  0
 10 12  1  0  0  0  0
 10 14  1  0  0  0  0
 11 13  1  0  0  0  0
 11 14  1  0  0  0  0
 12 20  1  0  0  0  0
 13 20  1  0  0  0  0
 15 19  1  0  0  0  0
 16 19  1  0  0  0  0
 17 19  1  0  0  0  0
 18 23  1  0  0  0  0
 19 24  1  0  0  0  0
  1 25  1  0  0  0  0
  2 26  1  0  0  0  0
  3 27  1  0  0  0  0
  9 28  1  0  0  0  0
  9 29  1  0  0  0  0
 10 30  1  0  0  0  0
 10 31  1  0  0  0  0
 11 32  1  0  0  0  0
 11 33  1  0  0  0  0
 12 34  1  0  0  0  0
 12 35  1  0  0  0  0
 13 36  1  0  0  0  0
 13 37  1  0  0  0  0
 15 38  1  0  0  0  0
 15 39  1  0  0  0  0
 15 40  1  0  0  0  0
 16 41  1  0  0  0  0
 16 42  1  0  0  0  0
 16 43  1  0  0  0  0
 17 44  1  0  0  0  0
 17 45  1  0  0  0  0
 17 46  1  0  0  0  0
 18 47  1  0  0  0  0
 18 48  1  0  0  0  0
 18 49  1  0  0  0  0
M  END
> <id>
EN300-28295801

> <smiles>
COC=1C=CC=2CC3(CCN(CC3)C(=O)OC(C)(C)C)C(=O)C2C1

> <MDLNUMBER>
MFCD32690866

> <IUPAC Name>
tert-butyl 5-methoxy-3-oxo-1,3-dihydrospiro[indene-2,4'-piperidine]-1'-carboxylate

> <CAS>
2245084-34-6

> <URL>
https://www.enaminestore.com/catalog/EN300-28295801

> <ROCS_ShapeQuery>
_x0404_0B

> <ROCS_TanimotoCombo>
0.432 

> <ROCS_ShapeTanimoto>
0.389 

> <ROCS_ColorTanimoto>
0.044 

> <ROCS_RefTversky>
0.338 

> <ROCS_RefColorTversky>
0.048 

> <ROCS_RefTverskyCombo>
0.385 

> <ROCS_FitTversky>
1.635 

> <ROCS_FitColorTversky>
0.330 

> <ROCS_FitTverskyCombo>
1.965 

> <ROCS_ColorScore>
-3.445

> <ROCS_Overlap>
2255.504

> <ROCS_Rank>
386                 

$$$$
untitled-dbase-116466_66
  -OEChem-08222312023D

 40 41  0     1  0  0  0  0  0999 V2000
   -9.0232    3.2452   -9.3620 C   0  0  0  0  0  0  0  0  0  0  0  0
   -8.9464    4.9179   -7.6807 C   0  0  0  0  0  0  0  0  0  0  0  0
   -8.9799    4.2485  -10.3350 C   0  0  0  0  0  0  0  0  0  0  0  0
   -9.0021    3.5775   -8.0133 C   0  0  0  0  0  0  0  0  0  0  0  0
   -8.9402    5.5760   -9.8984 C   0  0  0  0  0  0  0  0  0  0  0  0
   -8.6733    5.5587  -15.1705 C   0  0  0  0  0  0  0  0  0  0  0  0
   -9.0480    3.8840  -11.7945 C   0  0  0  0  0  0  0  0  0  0  0  0
   -8.8600    6.7161  -10.8782 C   0  0  0  0  0  0  0  0  0  0  0  0
   -9.2937    6.3344  -12.2932 C   0  0  0  0  0  0  0  0  0  0  0  0
   -8.6145    5.0305  -12.7195 C   0  0  2  0  0  0  0  0  0  0  0  0
   -6.9188    5.6138  -17.1107 C   0  0  0  0  0  0  0  0  0  0  0  0
   -8.4380    4.1412  -18.4644 C   0  0  0  0  0  0  0  0  0  0  0  0
   -9.0064    6.5666  -18.1445 C   0  0  0  0  0  0  0  0  0  0  0  0
   -8.3662    5.3321  -17.5112 C   0  0  0  0  0  0  0  0  0  0  0  0
   -8.9128    5.9205   -8.5858 N   0  0  0  0  0  0  0  0  0  0  0  0
   -9.0398    2.5841   -7.0217 N   0  0  0  0  0  0  0  0  0  0  0  0
   -8.9481    4.7202  -14.1087 N   0  0  0  0  0  0  0  0  0  0  0  0
   -8.1241    6.6528  -15.0937 O   0  0  0  0  0  0  0  0  0  0  0  0
   -9.1059    4.9879  -16.3343 O   0  0  0  0  0  0  0  0  0  0  0  0
   -9.0762    2.2014   -9.6638 H   0  0  0  0  0  0  0  0  0  0  0  0
   -8.9253    5.2427   -6.6448 H   0  0  0  0  0  0  0  0  0  0  0  0
   -8.4115    3.0109  -11.9855 H   0  0  0  0  0  0  0  0  0  0  0  0
  -10.0843    3.5963  -12.0163 H   0  0  0  0  0  0  0  0  0  0  0  0
   -9.4785    7.5490  -10.5241 H   0  0  0  0  0  0  0  0  0  0  0  0
   -7.8207    7.0667  -10.9000 H   0  0  0  0  0  0  0  0  0  0  0  0
  -10.3851    6.2167  -12.3249 H   0  0  0  0  0  0  0  0  0  0  0  0
   -9.0349    7.1487  -12.9805 H   0  0  0  0  0  0  0  0  0  0  0  0
   -7.5323    5.1539  -12.6875 H   0  0  0  0  0  0  0  0  0  0  0  0
   -6.8630    6.4680  -16.4265 H   0  0  0  0  0  0  0  0  0  0  0  0
   -6.4591    4.7476  -16.6237 H   0  0  0  0  0  0  0  0  0  0  0  0
   -6.3154    5.8792  -17.9863 H   0  0  0  0  0  0  0  0  0  0  0  0
   -9.4748    3.9355  -18.7544 H   0  0  0  0  0  0  0  0  0  0  0  0
   -8.0665    3.2308  -17.9803 H   0  0  0  0  0  0  0  0  0  0  0  0
   -7.8519    4.3147  -19.3727 H   0  0  0  0  0  0  0  0  0  0  0  0
  -10.0446    6.3648  -18.4318 H   0  0  0  0  0  0  0  0  0  0  0  0
   -8.9971    7.4215  -17.4606 H   0  0  0  0  0  0  0  0  0  0  0  0
   -8.4807    6.8501  -19.0635 H   0  0  0  0  0  0  0  0  0  0  0  0
   -8.9760    2.8473   -6.0559 H   0  0  0  0  0  0  0  0  0  0  0  0
   -9.0350    1.6177   -7.2902 H   0  0  0  0  0  0  0  0  0  0  0  0
   -9.4094    3.8356  -14.3042 H   0  0  0  0  0  0  0  0  0  0  0  0
  1  3  2  0  0  0  0
  1  4  1  0  0  0  0
  2  4  2  0  0  0  0
  2 15  1  0  0  0  0
  3  5  1  0  0  0  0
  3  7  1  0  0  0  0
  4 16  1  0  0  0  0
  5  8  1  0  0  0  0
  5 15  2  0  0  0  0
  6 17  1  0  0  0  0
  6 18  2  0  0  0  0
  6 19  1  0  0  0  0
  7 10  1  0  0  0  0
  8  9  1  0  0  0  0
  9 10  1  0  0  0  0
 10 17  1  0  0  0  0
 11 14  1  0  0  0  0
 12 14  1  0  0  0  0
 13 14  1  0  0  0  0
 14 19  1  0  0  0  0
  1 20  1  0  0  0  0
  2 21  1  0  0  0  0
  7 22  1  0  0  0  0
  7 23  1  0  0  0  0
  8 24  1  0  0  0  0
  8 25  1  0  0  0  0
  9 26  1  0  0  0  0
  9 27  1  0  0  0  0
 10 28  1  0  0  0  0
 11 29  1  0  0  0  0
 11 30  1  0  0  0  0
 11 31  1  0  0  0  0
 12 32  1  0  0  0  0
 12 33  1  0  0  0  0
 12 34  1  0  0  0  0
 13 35  1  0  0  0  0
 13 36  1  0  0  0  0
 13 37  1  0  0  0  0
 16 38  1  0  0  0  0
 16 39  1  0  0  0  0
 17 40  1  0  0  0  0
M  END
> <id>
EN300-127120

> <smiles>
CC(C)(C)OC(=O)NC1CCC=2N=CC(N)=CC2C1

> <MDLNUMBER>
MFCD24369169

> <IUPAC Name>
tert-butyl N-(3-amino-5,6,7,8-tetrahydroquinolin-6-yl)carbamate

> <CAS>
1432678-99-3

> <Purity>
95

> <URL>
https://www.enaminestore.com/catalog/EN300-127120

> <ROCS_ShapeQuery>
_x0404_0B

> <ROCS_TanimotoCombo>
0.432 

> <ROCS_ShapeTanimoto>
0.339 

> <ROCS_ColorTanimoto>
0.093 

> <ROCS_RefTversky>
0.297 

> <ROCS_RefColorTversky>
0.098 

> <ROCS_RefTverskyCombo>
0.395 

> <ROCS_FitTversky>
1.727 

> <ROCS_FitColorTversky>
0.624 

> <ROCS_FitTverskyCombo>
2.350 

> <ROCS_ColorScore>
-7.098

> <ROCS_Overlap>
1979.861

> <ROCS_Rank>
387                 

$$$$
untitled-dbase-91728_171
  -OEChem-08222312023D

 49 51  0     1  0  0  0  0  0999 V2000
   -9.0498    2.8126   -9.6868 C   0  0  0  0  0  0  0  0  0  0  0  0
   -9.4944    1.9212   -8.7238 C   0  0  0  0  0  0  0  0  0  0  0  0
   -9.0915    3.4157   -7.0261 C   0  0  0  0  0  0  0  0  0  0  0  0
   -8.6098    4.0619   -9.2636 C   0  0  0  0  0  0  0  0  0  0  0  0
   -8.6277    4.3771   -7.9095 C   0  0  0  0  0  0  0  0  0  0  0  0
   -8.4712    5.4147  -16.1747 C   0  0  0  0  0  0  0  0  0  0  0  0
   -8.9528    7.1341  -11.5524 C   0  0  0  0  0  0  0  0  0  0  0  0
   -9.0029    6.3277  -10.2547 C   0  0  0  0  0  0  0  0  0  0  0  0
   -8.0044    4.5043  -11.7671 C   0  0  0  0  0  0  0  0  0  0  0  0
   -8.7894    6.6740  -14.0517 C   0  0  0  0  0  0  0  0  0  0  0  0
   -9.1808    4.2948  -14.0280 C   0  0  0  0  0  0  0  0  0  0  0  0
   -9.4799    6.3174  -12.7360 C   0  0  1  0  0  0  0  0  0  0  0  0
   -9.2635    4.7988  -12.5886 C   0  0  2  0  0  0  0  0  0  0  0  0
   -8.1165    5.0543  -10.3187 C   0  0  2  0  0  0  0  0  0  0  0  0
   -7.3681    4.0365  -18.4226 C   0  0  0  0  0  0  0  0  0  0  0  0
   -9.6899    3.1492  -18.7845 C   0  0  0  0  0  0  0  0  0  0  0  0
   -9.2599    5.6200  -18.9206 C   0  0  0  0  0  0  0  0  0  0  0  0
   -8.8603    4.3108  -18.2416 C   0  0  0  0  0  0  0  0  0  0  0  0
   -9.5268    2.1915   -7.3996 N   0  0  0  0  0  0  0  0  0  0  0  0
   -8.8008    5.4487  -14.8296 N   0  0  0  0  0  0  0  0  0  0  0  0
   -7.6776    6.1849  -16.7108 O   0  0  0  0  0  0  0  0  0  0  0  0
   -6.7750    5.4136   -9.9402 O   0  0  0  0  0  0  0  0  0  0  0  0
   -9.1368    4.4207  -16.8410 O   0  0  0  0  0  0  0  0  0  0  0  0
   -8.0486    6.0494   -7.2484 Br  0  0  0  0  0  0  0  0  0  0  0  0
   -9.0489    2.5349  -10.7354 H   0  0  0  0  0  0  0  0  0  0  0  0
   -9.8479    0.9338   -9.0020 H   0  0  0  0  0  0  0  0  0  0  0  0
   -9.1321    3.5969   -5.9561 H   0  0  0  0  0  0  0  0  0  0  0  0
   -9.5756    8.0161  -11.4399 H   0  0  0  0  0  0  0  0  0  0  0  0
   -7.9393    7.4648  -11.7459 H   0  0  0  0  0  0  0  0  0  0  0  0
   -8.6811    6.9532   -9.4193 H   0  0  0  0  0  0  0  0  0  0  0  0
  -10.0362    6.0480  -10.0387 H   0  0  0  0  0  0  0  0  0  0  0  0
   -7.8315    3.4242  -11.7357 H   0  0  0  0  0  0  0  0  0  0  0  0
   -7.1140    4.9277  -12.2423 H   0  0  0  0  0  0  0  0  0  0  0  0
   -9.3095    7.4771  -14.5934 H   0  0  0  0  0  0  0  0  0  0  0  0
   -7.7413    6.9786  -13.9183 H   0  0  0  0  0  0  0  0  0  0  0  0
   -8.4711    3.4683  -14.1769 H   0  0  0  0  0  0  0  0  0  0  0  0
  -10.1656    3.9621  -14.3890 H   0  0  0  0  0  0  0  0  0  0  0  0
  -10.5431    6.5226  -12.8425 H   0  0  0  0  0  0  0  0  0  0  0  0
  -10.1373    4.3514  -12.0709 H   0  0  0  0  0  0  0  0  0  0  0  0
   -6.7691    4.8680  -18.0341 H   0  0  0  0  0  0  0  0  0  0  0  0
   -7.0617    3.1184  -17.9108 H   0  0  0  0  0  0  0  0  0  0  0  0
   -7.1138    3.9422  -19.4845 H   0  0  0  0  0  0  0  0  0  0  0  0
  -10.7613    3.3417  -18.6568 H   0  0  0  0  0  0  0  0  0  0  0  0
   -9.4746    2.2256  -18.2352 H   0  0  0  0  0  0  0  0  0  0  0  0
   -9.4934    2.9744  -19.8473 H   0  0  0  0  0  0  0  0  0  0  0  0
  -10.3303    5.8169  -18.7909 H   0  0  0  0  0  0  0  0  0  0  0  0
   -8.7008    6.4705  -18.5174 H   0  0  0  0  0  0  0  0  0  0  0  0
   -9.0838    5.5682  -20.0011 H   0  0  0  0  0  0  0  0  0  0  0  0
   -6.4585    6.0430  -10.6069 H   0  0  0  0  0  0  0  0  0  0  0  0
  1  2  1  0  0  0  0
  1  4  2  0  0  0  0
  2 19  2  0  0  0  0
  3  5  2  0  0  0  0
  3 19  1  0  0  0  0
  4  5  1  0  0  0  0
  4 14  1  0  0  0  0
  5 24  1  0  0  0  0
  6 20  1  0  0  0  0
  6 21  2  0  0  0  0
  6 23  1  0  0  0  0
  7  8  1  0  0  0  0
  7 12  1  0  0  0  0
  8 14  1  0  0  0  0
  9 13  1  0  0  0  0
  9 14  1  0  0  0  0
 10 12  1  0  0  0  0
 10 20  1  0  0  0  0
 11 13  1  0  0  0  0
 11 20  1  0  0  0  0
 12 13  1  0  0  0  0
 14 22  1  0  0  0  0
 15 18  1  0  0  0  0
 16 18  1  0  0  0  0
 17 18  1  0  0  0  0
 18 23  1  0  0  0  0
  1 25  1  0  0  0  0
  2 26  1  0  0  0  0
  3 27  1  0  0  0  0
  7 28  1  0  0  0  0
  7 29  1  0  0  0  0
  8 30  1  0  0  0  0
  8 31  1  0  0  0  0
  9 32  1  0  0  0  0
  9 33  1  0  0  0  0
 10 34  1  0  0  0  0
 10 35  1  0  0  0  0
 11 36  1  0  0  0  0
 11 37  1  0  0  0  0
 12 38  1  0  0  0  0
 13 39  1  0  0  0  0
 15 40  1  0  0  0  0
 15 41  1  0  0  0  0
 15 42  1  0  0  0  0
 16 43  1  0  0  0  0
 16 44  1  0  0  0  0
 16 45  1  0  0  0  0
 17 46  1  0  0  0  0
 17 47  1  0  0  0  0
 17 48  1  0  0  0  0
 22 49  1  0  0  0  0
M  END
> <id>
EN300-7428277

> <smiles>
CC(C)(C)OC(=O)N1CC2CCC(O)(CC2C1)C=3C=CN=CC3Br

> <IUPAC Name>
tert-butyl 5-(3-bromopyridin-4-yl)-5-hydroxy-octahydro-1H-isoindole-2-carboxylate

> <CAS>
2309465-39-0

> <URL>
https://www.enaminestore.com/catalog/EN300-7428277

> <ROCS_ShapeQuery>
_x0404_0B

> <ROCS_TanimotoCombo>
0.432 

> <ROCS_ShapeTanimoto>
0.380 

> <ROCS_ColorTanimoto>
0.052 

> <ROCS_RefTversky>
0.331 

> <ROCS_RefColorTversky>
0.058 

> <ROCS_RefTverskyCombo>
0.390 

> <ROCS_FitTversky>
1.624 

> <ROCS_FitColorTversky>
0.341 

> <ROCS_FitTverskyCombo>
1.965 

> <ROCS_ColorScore>
-4.213

> <ROCS_Overlap>
2213.104

> <ROCS_Rank>
388                 

$$$$
untitled-dbase-36335_122
  -OEChem-08222312023D

 48 50  0     1  0  0  0  0  0999 V2000
   -9.0699    1.5538   -8.5945 C   0  0  0  0  0  0  0  0  0  0  0  0
   -9.3258    3.5791   -8.0352 C   0  0  0  0  0  0  0  0  0  0  0  0
   -9.0887    3.6038   -9.3906 C   0  0  0  0  0  0  0  0  0  0  0  0
   -8.2950    5.2315  -14.9275 C   0  0  0  0  0  0  0  0  0  0  0  0
   -9.5498    4.8109   -7.2497 C   0  0  0  0  0  0  0  0  0  0  0  0
   -7.3272    6.3420  -11.5059 C   0  0  0  0  0  0  0  0  0  0  0  0
   -8.5538    6.7375  -12.3296 C   0  0  0  0  0  0  0  0  0  0  0  0
   -7.5236    5.0773  -10.6630 C   0  0  0  0  0  0  0  0  0  0  0  0
   -9.8604    4.6807  -11.5323 C   0  0  0  0  0  0  0  0  0  0  0  0
   -9.0548    6.0314   -8.0565 C   0  0  0  0  0  0  0  0  0  0  0  0
   -9.4246    5.5490  -12.7299 C   0  0  2  0  0  0  0  0  0  0  0  0
   -8.9910    4.8315  -10.2506 C   0  0  1  0  0  0  0  0  0  0  0  0
   -6.1200    5.6715  -16.7234 C   0  0  0  0  0  0  0  0  0  0  0  0
   -6.5674    3.3396  -17.5429 C   0  0  0  0  0  0  0  0  0  0  0  0
   -8.3317    5.1106  -17.7856 C   0  0  0  0  0  0  0  0  0  0  0  0
   -7.1829    4.5918  -16.9221 C   0  0  0  0  0  0  0  0  0  0  0  0
   -9.3241    2.3054   -7.5426 N   0  0  0  0  0  0  0  0  0  0  0  0
   -8.9092    2.2954   -9.7377 N   0  0  0  0  0  0  0  0  0  0  0  0
   -9.5009    6.0049   -9.4667 N   0  0  0  0  0  0  0  0  0  0  0  0
   -8.7495    4.7401  -13.7231 N   0  0  0  0  0  0  0  0  0  0  0  0
   -8.3970    6.3912  -15.3138 O   0  0  0  0  0  0  0  0  0  0  0  0
   -7.7055    4.2255  -15.6401 O   0  0  0  0  0  0  0  0  0  0  0  0
   -8.9904    0.4760   -8.5999 H   0  0  0  0  0  0  0  0  0  0  0  0
  -10.6108    4.9291   -7.0076 H   0  0  0  0  0  0  0  0  0  0  0  0
   -8.9941    4.7400   -6.3078 H   0  0  0  0  0  0  0  0  0  0  0  0
   -6.4689    6.1910  -12.1876 H   0  0  0  0  0  0  0  0  0  0  0  0
   -7.0321    7.1879  -10.8565 H   0  0  0  0  0  0  0  0  0  0  0  0
   -9.1496    7.4674  -11.7535 H   0  0  0  0  0  0  0  0  0  0  0  0
   -8.2115    7.2728  -13.2343 H   0  0  0  0  0  0  0  0  0  0  0  0
   -7.1455    4.2208  -11.2436 H   0  0  0  0  0  0  0  0  0  0  0  0
   -6.8776    5.1373   -9.7731 H   0  0  0  0  0  0  0  0  0  0  0  0
  -10.9255    4.8843  -11.3021 H   0  0  0  0  0  0  0  0  0  0  0  0
   -9.8489    3.6170  -11.8486 H   0  0  0  0  0  0  0  0  0  0  0  0
   -9.3840    6.9601   -7.5776 H   0  0  0  0  0  0  0  0  0  0  0  0
   -7.9600    6.0415   -8.0363 H   0  0  0  0  0  0  0  0  0  0  0  0
  -10.3260    5.9263  -13.2620 H   0  0  0  0  0  0  0  0  0  0  0  0
   -6.5578    6.5720  -16.2780 H   0  0  0  0  0  0  0  0  0  0  0  0
   -5.3075    5.3236  -16.0772 H   0  0  0  0  0  0  0  0  0  0  0  0
   -5.6908    5.9791  -17.6838 H   0  0  0  0  0  0  0  0  0  0  0  0
   -7.3264    2.5623  -17.6873 H   0  0  0  0  0  0  0  0  0  0  0  0
   -5.8069    2.9094  -16.8813 H   0  0  0  0  0  0  0  0  0  0  0  0
   -6.1032    3.5549  -18.5108 H   0  0  0  0  0  0  0  0  0  0  0  0
   -9.0942    4.3363  -17.9283 H   0  0  0  0  0  0  0  0  0  0  0  0
   -8.8094    5.9876  -17.3369 H   0  0  0  0  0  0  0  0  0  0  0  0
   -7.9755    5.3818  -18.7861 H   0  0  0  0  0  0  0  0  0  0  0  0
   -8.7022    1.9360  -10.6604 H   0  0  0  0  0  0  0  0  0  0  0  0
  -10.5160    6.0531   -9.5039 H   0  0  0  0  0  0  0  0  0  0  0  0
   -8.6031    3.7569  -13.5210 H   0  0  0  0  0  0  0  0  0  0  0  0
  1 17  2  0  0  0  0
  1 18  1  0  0  0  0
  2  3  2  0  0  0  0
  2  5  1  0  0  0  0
  2 17  1  0  0  0  0
  3 12  1  0  0  0  0
  3 18  1  0  0  0  0
  4 20  1  0  0  0  0
  4 21  2  0  0  0  0
  4 22  1  0  0  0  0
  5 10  1  0  0  0  0
  6  7  1  0  0  0  0
  6  8  1  0  0  0  0
  7 11  1  0  0  0  0
  8 12  1  0  0  0  0
  9 11  1  0  0  0  0
  9 12  1  0  0  0  0
 10 19  1  0  0  0  0
 11 20  1  0  0  0  0
 12 19  1  0  0  0  0
 13 16  1  0  0  0  0
 14 16  1  0  0  0  0
 15 16  1  0  0  0  0
 16 22  1  0  0  0  0
  1 23  1  0  0  0  0
  5 24  1  0  0  0  0
  5 25  1  0  0  0  0
  6 26  1  0  0  0  0
  6 27  1  0  0  0  0
  7 28  1  0  0  0  0
  7 29  1  0  0  0  0
  8 30  1  0  0  0  0
  8 31  1  0  0  0  0
  9 32  1  0  0  0  0
  9 33  1  0  0  0  0
 10 34  1  0  0  0  0
 10 35  1  0  0  0  0
 11 36  1  0  0  0  0
 13 37  1  0  0  0  0
 13 38  1  0  0  0  0
 13 39  1  0  0  0  0
 14 40  1  0  0  0  0
 14 41  1  0  0  0  0
 14 42  1  0  0  0  0
 15 43  1  0  0  0  0
 15 44  1  0  0  0  0
 15 45  1  0  0  0  0
 18 46  1  0  0  0  0
 19 47  1  0  0  0  0
 20 48  1  0  0  0  0
M  END
> <id>
EN300-1076965

> <smiles>
CC(C)(C)OC(=O)NC1CCCC2(C1)NCCC=3N=CNC32

> <IUPAC Name>
tert-butyl N-{3',5',6',7'-tetrahydrospiro[cyclohexane-1,4'-imidazo[4,5-c]pyridine]-5-yl}carbamate

> <CAS>
2137472-71-8

> <URL>
https://www.enaminestore.com/catalog/EN300-1076965

> <ROCS_ShapeQuery>
_x0404_0B

> <ROCS_TanimotoCombo>
0.432 

> <ROCS_ShapeTanimoto>
0.337 

> <ROCS_ColorTanimoto>
0.096 

> <ROCS_RefTversky>
0.300 

> <ROCS_RefColorTversky>
0.104 

> <ROCS_RefTverskyCombo>
0.405 

> <ROCS_FitTversky>
1.558 

> <ROCS_FitColorTversky>
0.530 

> <ROCS_FitTverskyCombo>
2.088 

> <ROCS_ColorScore>
-7.556

> <ROCS_Overlap>
2004.728

> <ROCS_Rank>
389                 

$$$$
untitled-dbase-119866_387
  -OEChem-08222312023D

 46 48  0     1  0  0  0  0  0999 V2000
   -8.9837    4.6260   -7.1446 C   0  0  0  0  0  0  0  0  0  0  0  0
   -9.1259    3.2710   -6.8180 C   0  0  0  0  0  0  0  0  0  0  0  0
   -9.1984    2.6346   -9.1712 C   0  0  0  0  0  0  0  0  0  0  0  0
   -8.9495    4.9793   -8.5014 C   0  0  0  0  0  0  0  0  0  0  0  0
   -9.0563    3.9885   -9.4678 C   0  0  0  0  0  0  0  0  0  0  0  0
   -9.2310    2.2954   -7.8141 C   0  0  0  0  0  0  0  0  0  0  0  0
   -8.5213    5.7202  -15.4757 C   0  0  0  0  0  0  0  0  0  0  0  0
   -8.0640    2.5235  -13.7525 C   0  0  0  0  0  0  0  0  0  0  0  0
   -7.9419    3.1146  -12.3436 C   0  0  0  0  0  0  0  0  0  0  0  0
   -8.9326    3.3526  -14.6973 C   0  0  0  0  0  0  0  0  0  0  0  0
   -8.9985    5.2711  -13.0981 C   0  0  0  0  0  0  0  0  0  0  0  0
   -9.0457    4.1422  -12.0545 C   0  0  2  0  0  0  0  0  0  0  0  0
   -6.1549    5.8206  -17.0807 C   0  0  0  0  0  0  0  0  0  0  0  0
   -7.6142    5.0016  -18.9540 C   0  0  0  0  0  0  0  0  0  0  0  0
   -8.0871    7.2219  -17.8793 C   0  0  0  0  0  0  0  0  0  0  0  0
   -7.5713    5.8014  -17.6537 C   0  0  0  0  0  0  0  0  0  0  0  0
   -8.8224    6.1988   -9.1126 N   0  0  0  0  0  0  0  0  0  0  0  0
   -8.8459    6.0051  -10.4268 N   0  0  0  0  0  0  0  0  0  0  0  0
   -8.9853    4.6860  -10.6390 N   0  0  0  0  0  0  0  0  0  0  0  0
   -8.7760    4.7888  -14.4631 N   0  0  0  0  0  0  0  0  0  0  0  0
   -9.3733    0.9381   -7.4441 N   0  0  0  0  0  0  0  0  0  0  0  0
   -8.3894    6.9276  -15.2807 O   0  0  0  0  0  0  0  0  0  0  0  0
   -8.4335    5.1468  -16.7159 O   0  0  0  0  0  0  0  0  0  0  0  0
   -8.9028    5.3764   -6.3650 H   0  0  0  0  0  0  0  0  0  0  0  0
   -9.1536    2.9857   -5.7684 H   0  0  0  0  0  0  0  0  0  0  0  0
   -9.2791    1.8860   -9.9519 H   0  0  0  0  0  0  0  0  0  0  0  0
   -7.0547    2.4076  -14.1881 H   0  0  0  0  0  0  0  0  0  0  0  0
   -8.4782    1.4995  -13.6822 H   0  0  0  0  0  0  0  0  0  0  0  0
   -7.9755    2.3025  -11.6014 H   0  0  0  0  0  0  0  0  0  0  0  0
   -6.9510    3.5844  -12.2341 H   0  0  0  0  0  0  0  0  0  0  0  0
   -8.6480    3.1621  -15.7414 H   0  0  0  0  0  0  0  0  0  0  0  0
   -9.9832    3.0547  -14.5909 H   0  0  0  0  0  0  0  0  0  0  0  0
   -9.9237    5.8741  -13.0336 H   0  0  0  0  0  0  0  0  0  0  0  0
   -8.1751    5.9771  -12.8696 H   0  0  0  0  0  0  0  0  0  0  0  0
  -10.0363    3.6474  -12.1005 H   0  0  0  0  0  0  0  0  0  0  0  0
   -6.1200    6.3937  -16.1473 H   0  0  0  0  0  0  0  0  0  0  0  0
   -5.7866    4.8089  -16.8816 H   0  0  0  0  0  0  0  0  0  0  0  0
   -5.4603    6.3121  -17.7715 H   0  0  0  0  0  0  0  0  0  0  0  0
   -8.6286    4.9852  -19.3687 H   0  0  0  0  0  0  0  0  0  0  0  0
   -7.3354    3.9562  -18.7786 H   0  0  0  0  0  0  0  0  0  0  0  0
   -6.9383    5.4189  -19.7075 H   0  0  0  0  0  0  0  0  0  0  0  0
   -9.1030    7.2084  -18.2903 H   0  0  0  0  0  0  0  0  0  0  0  0
   -8.0982    7.7994  -16.9493 H   0  0  0  0  0  0  0  0  0  0  0  0
   -7.4648    7.7509  -18.6103 H   0  0  0  0  0  0  0  0  0  0  0  0
   -9.4952    0.2516   -8.1584 H   0  0  0  0  0  0  0  0  0  0  0  0
   -9.4436    0.7051   -6.4759 H   0  0  0  0  0  0  0  0  0  0  0  0
  1  2  1  0  0  0  0
  1  4  2  0  0  0  0
  2  6  2  0  0  0  0
  3  5  2  0  0  0  0
  3  6  1  0  0  0  0
  4  5  1  0  0  0  0
  4 17  1  0  0  0  0
  5 19  1  0  0  0  0
  6 21  1  0  0  0  0
  7 20  1  0  0  0  0
  7 22  2  0  0  0  0
  7 23  1  0  0  0  0
  8  9  1  0  0  0  0
  8 10  1  0  0  0  0
  9 12  1  0  0  0  0
 10 20  1  0  0  0  0
 11 12  1  0  0  0  0
 11 20  1  0  0  0  0
 12 19  1  0  0  0  0
 13 16  1  0  0  0  0
 14 16  1  0  0  0  0
 15 16  1  0  0  0  0
 16 23  1  0  0  0  0
 17 18  2  0  0  0  0
 18 19  1  0  0  0  0
  1 24  1  0  0  0  0
  2 25  1  0  0  0  0
  3 26  1  0  0  0  0
  8 27  1  0  0  0  0
  8 28  1  0  0  0  0
  9 29  1  0  0  0  0
  9 30  1  0  0  0  0
 10 31  1  0  0  0  0
 10 32  1  0  0  0  0
 11 33  1  0  0  0  0
 11 34  1  0  0  0  0
 12 35  1  0  0  0  0
 13 36  1  0  0  0  0
 13 37  1  0  0  0  0
 13 38  1  0  0  0  0
 14 39  1  0  0  0  0
 14 40  1  0  0  0  0
 14 41  1  0  0  0  0
 15 42  1  0  0  0  0
 15 43  1  0  0  0  0
 15 44  1  0  0  0  0
 21 45  1  0  0  0  0
 21 46  1  0  0  0  0
M  END
> <id>
EN300-6750488

> <smiles>
CC(C)(C)OC(=O)N1CCCC(C1)N2N=NC=3C=CC(N)=CC23

> <IUPAC Name>
tert-butyl 3-(6-amino-1H-1,2,3-benzotriazol-1-yl)piperidine-1-carboxylate

> <CAS>
2287302-89-8

> <URL>
https://www.enaminestore.com/catalog/EN300-6750488

> <ROCS_ShapeQuery>
_x0404_0B

> <ROCS_TanimotoCombo>
0.432 

> <ROCS_ShapeTanimoto>
0.361 

> <ROCS_ColorTanimoto>
0.071 

> <ROCS_RefTversky>
0.319 

> <ROCS_RefColorTversky>
0.078 

> <ROCS_RefTverskyCombo>
0.396 

> <ROCS_FitTversky>
1.587 

> <ROCS_FitColorTversky>
0.442 

> <ROCS_FitTverskyCombo>
2.030 

> <ROCS_ColorScore>
-5.607

> <ROCS_Overlap>
2128.346

> <ROCS_Rank>
390                 

$$$$
untitled-dbase-42066_1318
  -OEChem-08222312023D

 45 47  0     0  0  0  0  0  0999 V2000
   -8.9185    4.5370  -18.7747 C   0  0  0  0  0  0  0  0  0  0  0  0
   -8.0403    5.6652  -18.7219 C   0  0  0  0  0  0  0  0  0  0  0  0
   -9.5421    3.9728  -17.6443 C   0  0  0  0  0  0  0  0  0  0  0  0
   -7.7001    6.3403  -17.5290 C   0  0  0  0  0  0  0  0  0  0  0  0
   -9.6192    4.3650  -15.2257 C   0  0  0  0  0  0  0  0  0  0  0  0
   -9.1883    4.6576  -16.4887 C   0  0  0  0  0  0  0  0  0  0  0  0
   -8.3093    5.7976  -16.3826 C   0  0  0  0  0  0  0  0  0  0  0  0
   -8.7725    5.3517   -8.7891 C   0  0  0  0  0  0  0  0  0  0  0  0
   -8.7751    4.1095  -12.2019 C   0  0  0  0  0  0  0  0  0  0  0  0
   -8.3989    6.6299  -12.3668 C   0  0  0  0  0  0  0  0  0  0  0  0
   -7.9851    4.3374  -10.9138 C   0  0  0  0  0  0  0  0  0  0  0  0
   -8.6215    6.7513  -10.8610 C   0  0  0  0  0  0  0  0  0  0  0  0
   -9.1583    5.4172  -12.9291 C   0  0  0  0  0  0  0  0  0  0  0  0
  -10.8982    3.8521   -8.4539 C   0  0  0  0  0  0  0  0  0  0  0  0
   -9.3912    1.8954   -7.9963 C   0  0  0  0  0  0  0  0  0  0  0  0
   -9.6802    3.6848   -6.2577 C   0  0  0  0  0  0  0  0  0  0  0  0
   -9.6220    3.3856   -7.7550 C   0  0  0  0  0  0  0  0  0  0  0  0
   -8.2238    6.1680  -15.0926 N   0  0  0  0  0  0  0  0  0  0  0  0
   -9.0129    5.2967  -14.4345 N   0  0  0  0  0  0  0  0  0  0  0  0
   -8.4953    5.4743  -10.1542 N   0  0  0  0  0  0  0  0  0  0  0  0
   -9.2033    6.2596   -8.0811 O   0  0  0  0  0  0  0  0  0  0  0  0
   -8.5101    4.0911   -8.3181 O   0  0  0  0  0  0  0  0  0  0  0  0
   -9.1143    4.0896  -19.7490 H   0  0  0  0  0  0  0  0  0  0  0  0
   -7.6104    6.0217  -19.6575 H   0  0  0  0  0  0  0  0  0  0  0  0
  -10.2037    3.1198  -17.6976 H   0  0  0  0  0  0  0  0  0  0  0  0
   -7.0330    7.1921  -17.5113 H   0  0  0  0  0  0  0  0  0  0  0  0
  -10.2786    3.6074  -14.8243 H   0  0  0  0  0  0  0  0  0  0  0  0
   -8.1855    3.4637  -12.8810 H   0  0  0  0  0  0  0  0  0  0  0  0
   -9.6901    3.5320  -11.9727 H   0  0  0  0  0  0  0  0  0  0  0  0
   -8.7348    7.5455  -12.8627 H   0  0  0  0  0  0  0  0  0  0  0  0
   -7.3271    6.5323  -12.5706 H   0  0  0  0  0  0  0  0  0  0  0  0
   -8.0607    3.4524  -10.2632 H   0  0  0  0  0  0  0  0  0  0  0  0
   -6.9209    4.4591  -11.1571 H   0  0  0  0  0  0  0  0  0  0  0  0
   -7.9210    7.4935  -10.4418 H   0  0  0  0  0  0  0  0  0  0  0  0
   -9.6368    7.1341  -10.6551 H   0  0  0  0  0  0  0  0  0  0  0  0
  -10.2594    5.5879  -12.8022 H   0  0  0  0  0  0  0  0  0  0  0  0
  -11.0674    4.9213   -8.2831 H   0  0  0  0  0  0  0  0  0  0  0  0
  -10.8547    3.6750   -9.5335 H   0  0  0  0  0  0  0  0  0  0  0  0
  -11.7759    3.3323   -8.0530 H   0  0  0  0  0  0  0  0  0  0  0  0
   -8.4765    1.5563   -7.4967 H   0  0  0  0  0  0  0  0  0  0  0  0
   -9.2541    1.6895   -9.0640 H   0  0  0  0  0  0  0  0  0  0  0  0
  -10.2292    1.2925   -7.6318 H   0  0  0  0  0  0  0  0  0  0  0  0
   -8.7649    3.3503   -5.7562 H   0  0  0  0  0  0  0  0  0  0  0  0
   -9.8085    4.7549   -6.0650 H   0  0  0  0  0  0  0  0  0  0  0  0
  -10.5075    3.1440   -5.7842 H   0  0  0  0  0  0  0  0  0  0  0  0
  1  2  1  0  0  0  0
  1  3  2  0  0  0  0
  2  4  2  0  0  0  0
  3  6  1  0  0  0  0
  4  7  1  0  0  0  0
  5  6  2  0  0  0  0
  5 19  1  0  0  0  0
  6  7  1  0  0  0  0
  7 18  2  0  0  0  0
  8 20  1  0  0  0  0
  8 21  2  0  0  0  0
  8 22  1  0  0  0  0
  9 11  1  0  0  0  0
  9 13  1  0  0  0  0
 10 12  1  0  0  0  0
 10 13  1  0  0  0  0
 11 20  1  0  0  0  0
 12 20  1  0  0  0  0
 13 19  1  0  0  0  0
 14 17  1  0  0  0  0
 15 17  1  0  0  0  0
 16 17  1  0  0  0  0
 17 22  1  0  0  0  0
 18 19  1  0  0  0  0
  1 23  1  0  0  0  0
  2 24  1  0  0  0  0
  3 25  1  0  0  0  0
  4 26  1  0  0  0  0
  5 27  1  0  0  0  0
  9 28  1  0  0  0  0
  9 29  1  0  0  0  0
 10 30  1  0  0  0  0
 10 31  1  0  0  0  0
 11 32  1  0  0  0  0
 11 33  1  0  0  0  0
 12 34  1  0  0  0  0
 12 35  1  0  0  0  0
 13 36  1  0  0  0  0
 14 37  1  0  0  0  0
 14 38  1  0  0  0  0
 14 39  1  0  0  0  0
 15 40  1  0  0  0  0
 15 41  1  0  0  0  0
 15 42  1  0  0  0  0
 16 43  1  0  0  0  0
 16 44  1  0  0  0  0
 16 45  1  0  0  0  0
M  END
> <id>
EN300-1268034

> <smiles>
CC(C)(C)OC(=O)N1CCC(CC1)N2C=C3C=CC=CC3=N2

> <MDLNUMBER>
MFCD31559114

> <IUPAC Name>
tert-butyl 4-(2H-indazol-2-yl)piperidine-1-carboxylate

> <CAS>
2062562-14-3

> <Purity>
95

> <URL>
https://www.enaminestore.com/catalog/EN300-1268034

> <ROCS_ShapeQuery>
_x0404_0B

> <ROCS_TanimotoCombo>
0.432 

> <ROCS_ShapeTanimoto>
0.360 

> <ROCS_ColorTanimoto>
0.072 

> <ROCS_RefTversky>
0.316 

> <ROCS_RefColorTversky>
0.076 

> <ROCS_RefTverskyCombo>
0.392 

> <ROCS_FitTversky>
1.630 

> <ROCS_FitColorTversky>
0.577 

> <ROCS_FitTverskyCombo>
2.207 

> <ROCS_ColorScore>
-5.484

> <ROCS_Overlap>
2109.390

> <ROCS_Rank>
391                 

$$$$
untitled-dbase-66766_78
  -OEChem-08222312023D

 47 48  0     0  0  0  0  0  0999 V2000
  -10.0116    5.7772  -16.5757 C   0  0  0  0  0  0  0  0  0  0  0  0
   -7.3826    5.3203  -16.6612 C   0  0  0  0  0  0  0  0  0  0  0  0
   -9.2107    6.0274  -15.4832 C   0  0  0  0  0  0  0  0  0  0  0  0
   -8.1835    5.0693  -17.7535 C   0  0  0  0  0  0  0  0  0  0  0  0
   -9.7678    6.5536  -14.2313 C   0  0  0  0  0  0  0  0  0  0  0  0
   -9.0759    5.0635   -8.9721 C   0  0  0  0  0  0  0  0  0  0  0  0
   -9.1978    7.1603  -11.9285 C   0  0  0  0  0  0  0  0  0  0  0  0
   -8.4351    6.6942  -10.6983 C   0  0  0  0  0  0  0  0  0  0  0  0
   -8.4021    4.9650  -12.7803 C   0  0  0  0  0  0  0  0  0  0  0  0
   -8.8059    4.3052  -11.4285 C   0  0  0  0  0  0  0  0  0  0  0  0
   -7.7818    3.1854  -11.1589 C   0  0  0  0  0  0  0  0  0  0  0  0
  -10.2157    3.7016  -11.6039 C   0  0  0  0  0  0  0  0  0  0  0  0
   -9.7857    4.0834   -6.3753 C   0  0  0  0  0  0  0  0  0  0  0  0
   -9.5255    1.7942   -7.3759 C   0  0  0  0  0  0  0  0  0  0  0  0
   -7.5491    3.3394   -7.2577 C   0  0  0  0  0  0  0  0  0  0  0  0
   -9.0643    3.2489   -7.4326 C   0  0  0  0  0  0  0  0  0  0  0  0
   -7.8819    5.8038  -15.5064 N   0  0  0  0  0  0  0  0  0  0  0  0
   -9.5124    5.2933  -17.7304 N   0  0  0  0  0  0  0  0  0  0  0  0
   -9.1383    6.2091  -13.0318 N   0  0  0  0  0  0  0  0  0  0  0  0
   -8.7984    5.3241  -10.3263 N   0  0  0  0  0  0  0  0  0  0  0  0
  -10.7616    7.2722  -14.3303 O   0  0  0  0  0  0  0  0  0  0  0  0
   -9.0327    5.9127   -8.0825 O   0  0  0  0  0  0  0  0  0  0  0  0
   -9.4052    3.7595   -8.7268 O   0  0  0  0  0  0  0  0  0  0  0  0
   -7.5560    4.4561  -19.2216 Cl  0  0  0  0  0  0  0  0  0  0  0  0
  -11.0809    5.9533  -16.5651 H   0  0  0  0  0  0  0  0  0  0  0  0
   -6.3133    5.1438  -16.6700 H   0  0  0  0  0  0  0  0  0  0  0  0
  -10.2562    7.3168  -11.6798 H   0  0  0  0  0  0  0  0  0  0  0  0
   -8.7978    8.1222  -12.2737 H   0  0  0  0  0  0  0  0  0  0  0  0
   -7.3533    6.7046  -10.8837 H   0  0  0  0  0  0  0  0  0  0  0  0
   -8.6202    7.3986   -9.8813 H   0  0  0  0  0  0  0  0  0  0  0  0
   -7.3381    5.2274  -12.7818 H   0  0  0  0  0  0  0  0  0  0  0  0
   -8.5529    4.2685  -13.6106 H   0  0  0  0  0  0  0  0  0  0  0  0
   -8.0273    2.6978  -10.2224 H   0  0  0  0  0  0  0  0  0  0  0  0
   -6.7899    3.6186  -11.0988 H   0  0  0  0  0  0  0  0  0  0  0  0
   -7.8206    2.4663  -11.9692 H   0  0  0  0  0  0  0  0  0  0  0  0
  -10.5192    3.2355  -10.6739 H   0  0  0  0  0  0  0  0  0  0  0  0
  -10.1876    2.9615  -12.3950 H   0  0  0  0  0  0  0  0  0  0  0  0
  -10.9094    4.4926  -11.8635 H   0  0  0  0  0  0  0  0  0  0  0  0
   -9.4574    5.1283   -6.4128 H   0  0  0  0  0  0  0  0  0  0  0  0
  -10.8718    4.0550   -6.5109 H   0  0  0  0  0  0  0  0  0  0  0  0
   -9.5534    3.7224   -5.3668 H   0  0  0  0  0  0  0  0  0  0  0  0
   -9.0105    1.1918   -8.1329 H   0  0  0  0  0  0  0  0  0  0  0  0
  -10.5965    1.7155   -7.5950 H   0  0  0  0  0  0  0  0  0  0  0  0
   -9.3391    1.3493   -6.3931 H   0  0  0  0  0  0  0  0  0  0  0  0
   -7.0314    2.7410   -8.0160 H   0  0  0  0  0  0  0  0  0  0  0  0
   -7.1954    4.3729   -7.3324 H   0  0  0  0  0  0  0  0  0  0  0  0
   -7.2444    2.9366   -6.2849 H   0  0  0  0  0  0  0  0  0  0  0  0
  1  3  2  0  0  0  0
  1 18  1  0  0  0  0
  2  4  1  0  0  0  0
  2 17  2  0  0  0  0
  3  5  1  0  0  0  0
  3 17  1  0  0  0  0
  4 18  2  0  0  0  0
  4 24  1  0  0  0  0
  5 19  1  0  0  0  0
  5 21  2  0  0  0  0
  6 20  1  0  0  0  0
  6 22  2  0  0  0  0
  6 23  1  0  0  0  0
  7  8  1  0  0  0  0
  7 19  1  0  0  0  0
  8 20  1  0  0  0  0
  9 10  1  0  0  0  0
  9 19  1  0  0  0  0
 10 11  1  0  0  0  0
 10 12  1  0  0  0  0
 10 20  1  0  0  0  0
 13 16  1  0  0  0  0
 14 16  1  0  0  0  0
 15 16  1  0  0  0  0
 16 23  1  0  0  0  0
  1 25  1  0  0  0  0
  2 26  1  0  0  0  0
  7 27  1  0  0  0  0
  7 28  1  0  0  0  0
  8 29  1  0  0  0  0
  8 30  1  0  0  0  0
  9 31  1  0  0  0  0
  9 32  1  0  0  0  0
 11 33  1  0  0  0  0
 11 34  1  0  0  0  0
 11 35  1  0  0  0  0
 12 36  1  0  0  0  0
 12 37  1  0  0  0  0
 12 38  1  0  0  0  0
 13 39  1  0  0  0  0
 13 40  1  0  0  0  0
 13 41  1  0  0  0  0
 14 42  1  0  0  0  0
 14 43  1  0  0  0  0
 14 44  1  0  0  0  0
 15 45  1  0  0  0  0
 15 46  1  0  0  0  0
 15 47  1  0  0  0  0
M  END
> <id>
EN300-7446758

> <smiles>
CC(C)(C)OC(=O)N1CCN(CC1(C)C)C(=O)C=2C=NC(Cl)=CN2

> <MDLNUMBER>
MFCD32219698

> <IUPAC Name>
tert-butyl 4-(5-chloropyrazine-2-carbonyl)-2,2-dimethylpiperazine-1-carboxylate

> <CAS>
2402838-43-9

> <Purity>
95

> <URL>
https://www.enaminestore.com/catalog/EN300-7446758

> <ROCS_ShapeQuery>
_x0404_0B

> <ROCS_TanimotoCombo>
0.432 

> <ROCS_ShapeTanimoto>
0.365 

> <ROCS_ColorTanimoto>
0.067 

> <ROCS_RefTversky>
0.322 

> <ROCS_RefColorTversky>
0.073 

> <ROCS_RefTverskyCombo>
0.395 

> <ROCS_FitTversky>
1.579 

> <ROCS_FitColorTversky>
0.460 

> <ROCS_FitTverskyCombo>
2.040 

> <ROCS_ColorScore>
-5.240

> <ROCS_Overlap>
2150.102

> <ROCS_Rank>
392                 

$$$$
untitled-dbase-118797_149
  -OEChem-08222312023D

 58 61  0     0  0  0  0  0  0999 V2000
   -9.0859    3.8191   -9.8836 B   0  0  0  0  0  0  0  0  0  0  0  0
   -8.8068    5.7675  -15.0371 C   0  0  0  0  0  0  0  0  0  0  0  0
   -5.9054    5.9444  -17.8421 C   0  0  0  0  0  0  0  0  0  0  0  0
   -9.8136    4.2928  -18.2896 C   0  0  0  0  0  0  0  0  0  0  0  0
   -7.3535    6.4774  -17.8173 C   0  0  0  0  0  0  0  0  0  0  0  0
   -6.3318    4.8622  -16.8280 C   0  0  0  0  0  0  0  0  0  0  0  0
   -8.3039    4.1245  -18.3775 C   0  0  0  0  0  0  0  0  0  0  0  0
  -10.2803    3.6549  -12.2761 C   0  0  0  0  0  0  0  0  0  0  0  0
   -9.1543    5.8534  -11.6260 C   0  0  0  0  0  0  0  0  0  0  0  0
  -10.0610    4.3802  -16.7929 C   0  0  0  0  0  0  0  0  0  0  0  0
  -10.1272    4.0015  -13.7646 C   0  0  0  0  0  0  0  0  0  0  0  0
   -9.8945    6.2987  -12.8878 C   0  0  0  0  0  0  0  0  0  0  0  0
   -9.1805    4.3182  -11.4232 C   0  0  0  0  0  0  0  0  0  0  0  0
   -7.7899    5.0812  -17.2968 C   0  0  0  0  0  0  0  0  0  0  0  0
   -8.7973    3.8815   -7.6144 C   0  0  0  0  0  0  0  0  0  0  0  0
   -9.1145    2.4187   -8.0738 C   0  0  0  0  0  0  0  0  0  0  0  0
   -9.9690    4.6136   -6.9221 C   0  0  0  0  0  0  0  0  0  0  0  0
   -7.5606    4.0166   -6.7145 C   0  0  0  0  0  0  0  0  0  0  0  0
  -10.2445    1.7326   -7.2930 C   0  0  0  0  0  0  0  0  0  0  0  0
   -7.8996    1.4636   -8.0860 C   0  0  0  0  0  0  0  0  0  0  0  0
   -9.6582    5.3733  -13.9928 N   0  0  0  0  0  0  0  0  0  0  0  0
   -8.8709    5.0623  -16.2452 N   0  0  0  0  0  0  0  0  0  0  0  0
   -8.0334    6.7228  -14.8885 O   0  0  0  0  0  0  0  0  0  0  0  0
   -8.5283    4.5910   -8.8669 O   0  0  0  0  0  0  0  0  0  0  0  0
   -9.5508    2.5749   -9.4629 O   0  0  0  0  0  0  0  0  0  0  0  0
   -5.6033    5.5399  -18.8152 H   0  0  0  0  0  0  0  0  0  0  0  0
   -5.1384    6.6422  -17.4960 H   0  0  0  0  0  0  0  0  0  0  0  0
  -10.1655    5.1785  -18.8266 H   0  0  0  0  0  0  0  0  0  0  0  0
  -10.3191    3.4116  -18.7029 H   0  0  0  0  0  0  0  0  0  0  0  0
   -7.4986    7.3057  -17.1184 H   0  0  0  0  0  0  0  0  0  0  0  0
   -7.7545    6.7728  -18.7895 H   0  0  0  0  0  0  0  0  0  0  0  0
   -5.9053    3.8687  -17.0089 H   0  0  0  0  0  0  0  0  0  0  0  0
   -6.1075    5.1333  -15.7904 H   0  0  0  0  0  0  0  0  0  0  0  0
   -7.9960    3.0857  -18.2236 H   0  0  0  0  0  0  0  0  0  0  0  0
   -7.9532    4.4411  -19.3676 H   0  0  0  0  0  0  0  0  0  0  0  0
  -11.2672    3.9884  -11.9398 H   0  0  0  0  0  0  0  0  0  0  0  0
  -10.2548    2.5674  -12.1645 H   0  0  0  0  0  0  0  0  0  0  0  0
   -8.1129    6.2120  -11.6825 H   0  0  0  0  0  0  0  0  0  0  0  0
   -9.5985    6.3565  -10.7505 H   0  0  0  0  0  0  0  0  0  0  0  0
  -10.9404    5.0037  -16.6063 H   0  0  0  0  0  0  0  0  0  0  0  0
  -10.1981    3.3976  -16.3303 H   0  0  0  0  0  0  0  0  0  0  0  0
   -9.4063    3.3202  -14.2490 H   0  0  0  0  0  0  0  0  0  0  0  0
  -11.0923    3.8509  -14.2778 H   0  0  0  0  0  0  0  0  0  0  0  0
  -10.9564    6.4554  -12.7011 H   0  0  0  0  0  0  0  0  0  0  0  0
   -9.5129    7.2763  -13.2093 H   0  0  0  0  0  0  0  0  0  0  0  0
   -8.2222    3.9533  -11.8469 H   0  0  0  0  0  0  0  0  0  0  0  0
   -9.6466    5.6097   -6.6462 H   0  0  0  0  0  0  0  0  0  0  0  0
  -10.2560    4.0587   -6.0377 H   0  0  0  0  0  0  0  0  0  0  0  0
  -10.8028    4.6711   -7.6106 H   0  0  0  0  0  0  0  0  0  0  0  0
   -7.4203    5.0600   -6.4479 H   0  0  0  0  0  0  0  0  0  0  0  0
   -6.6852    3.6574   -7.2476 H   0  0  0  0  0  0  0  0  0  0  0  0
   -7.7039    3.4277   -5.8132 H   0  0  0  0  0  0  0  0  0  0  0  0
  -10.3924    0.7284   -7.6793 H   0  0  0  0  0  0  0  0  0  0  0  0
  -11.1610    2.3041   -7.4074 H   0  0  0  0  0  0  0  0  0  0  0  0
   -9.9774    1.6814   -6.2415 H   0  0  0  0  0  0  0  0  0  0  0  0
   -8.2256    0.4853   -8.4162 H   0  0  0  0  0  0  0  0  0  0  0  0
   -7.4930    1.4003   -7.0845 H   0  0  0  0  0  0  0  0  0  0  0  0
   -7.1527    1.8545   -8.7655 H   0  0  0  0  0  0  0  0  0  0  0  0
  1 13  1  0  0  0  0
  1 24  1  0  0  0  0
  1 25  1  0  0  0  0
  2 21  1  0  0  0  0
  2 22  1  0  0  0  0
  2 23  2  0  0  0  0
  3  5  1  0  0  0  0
  3  6  1  0  0  0  0
  4  7  1  0  0  0  0
  4 10  1  0  0  0  0
  5 14  1  0  0  0  0
  6 14  1  0  0  0  0
  7 14  1  0  0  0  0
  8 11  1  0  0  0  0
  8 13  1  0  0  0  0
  9 12  1  0  0  0  0
  9 13  1  0  0  0  0
 10 22  1  0  0  0  0
 11 21  1  0  0  0  0
 12 21  1  0  0  0  0
 14 22  1  0  0  0  0
 15 16  1  0  0  0  0
 15 17  1  0  0  0  0
 15 18  1  0  0  0  0
 15 24  1  0  0  0  0
 16 19  1  0  0  0  0
 16 20  1  0  0  0  0
 16 25  1  0  0  0  0
  3 26  1  0  0  0  0
  3 27  1  0  0  0  0
  4 28  1  0  0  0  0
  4 29  1  0  0  0  0
  5 30  1  0  0  0  0
  5 31  1  0  0  0  0
  6 32  1  0  0  0  0
  6 33  1  0  0  0  0
  7 34  1  0  0  0  0
  7 35  1  0  0  0  0
  8 36  1  0  0  0  0
  8 37  1  0  0  0  0
  9 38  1  0  0  0  0
  9 39  1  0  0  0  0
 10 40  1  0  0  0  0
 10 41  1  0  0  0  0
 11 42  1  0  0  0  0
 11 43  1  0  0  0  0
 12 44  1  0  0  0  0
 12 45  1  0  0  0  0
 13 46  1  0  0  0  0
 17 47  1  0  0  0  0
 17 48  1  0  0  0  0
 17 49  1  0  0  0  0
 18 50  1  0  0  0  0
 18 51  1  0  0  0  0
 18 52  1  0  0  0  0
 19 53  1  0  0  0  0
 19 54  1  0  0  0  0
 19 55  1  0  0  0  0
 20 56  1  0  0  0  0
 20 57  1  0  0  0  0
 20 58  1  0  0  0  0
M  END
> <id>
EN300-6735586

> <smiles>
CC1(C)OB(OC1(C)C)C2CCN(CC2)C(=O)N3CCCC43CCC4

> <IUPAC Name>
5-[4-(tetramethyl-1,3,2-dioxaborolan-2-yl)piperidine-1-carbonyl]-5-azaspiro[3.4]octane

> <URL>
https://www.enaminestore.com/catalog/EN300-6735586

> <ROCS_ShapeQuery>
_x0404_0B

> <ROCS_TanimotoCombo>
0.432 

> <ROCS_ShapeTanimoto>
0.367 

> <ROCS_ColorTanimoto>
0.065 

> <ROCS_RefTversky>
0.325 

> <ROCS_RefColorTversky>
0.070 

> <ROCS_RefTverskyCombo>
0.394 

> <ROCS_FitTversky>
1.551 

> <ROCS_FitColorTversky>
0.483 

> <ROCS_FitTverskyCombo>
2.034 

> <ROCS_ColorScore>
-5.043

> <ROCS_Overlap>
2168.410

> <ROCS_Rank>
393                 

$$$$
untitled-dbase-114307_22
  -OEChem-08222312023D

 36 39  0     0  0  0  0  0  0999 V2000
   -9.6649    2.5120   -7.2834 C   0  0  0  0  0  0  0  0  0  0  0  0
   -9.1908    3.5620   -6.5001 C   0  0  0  0  0  0  0  0  0  0  0  0
   -9.6378    2.5917   -8.6802 C   0  0  0  0  0  0  0  0  0  0  0  0
   -9.4545    4.5853  -16.0361 C   0  0  0  0  0  0  0  0  0  0  0  0
   -8.6756    4.7221   -7.0850 C   0  0  0  0  0  0  0  0  0  0  0  0
   -9.5177    5.2559  -17.2524 C   0  0  0  0  0  0  0  0  0  0  0  0
   -7.0816    4.6835  -16.1647 C   0  0  0  0  0  0  0  0  0  0  0  0
   -9.1231    3.7511   -9.2950 C   0  0  0  0  0  0  0  0  0  0  0  0
   -8.2170    4.2898  -15.4750 C   0  0  0  0  0  0  0  0  0  0  0  0
   -8.9466    4.1655  -10.6461 C   0  0  0  0  0  0  0  0  0  0  0  0
   -8.6540    4.7901   -8.4828 C   0  0  0  0  0  0  0  0  0  0  0  0
   -8.3884    5.4256  -10.6142 C   0  0  0  0  0  0  0  0  0  0  0  0
   -8.3241    5.6065  -17.8624 C   0  0  0  0  0  0  0  0  0  0  0  0
   -8.1179    3.5880  -14.1981 C   0  0  0  0  0  0  0  0  0  0  0  0
   -9.2787    3.4579  -11.9165 C   0  0  0  0  0  0  0  0  0  0  0  0
   -8.0265    6.2350  -11.8037 C   0  0  0  0  0  0  0  0  0  0  0  0
   -8.7897    5.6761  -13.0149 C   0  0  0  0  0  0  0  0  0  0  0  0
   -7.1033    5.3365  -17.3481 N   0  0  0  0  0  0  0  0  0  0  0  0
   -8.2103    5.7968   -9.3144 N   0  0  0  0  0  0  0  0  0  0  0  0
   -8.7082    4.1993  -13.0730 N   0  0  0  0  0  0  0  0  0  0  0  0
   -7.5390    2.5021  -14.1306 O   0  0  0  0  0  0  0  0  0  0  0  0
   -8.3059    6.4358  -19.3644 Cl  0  0  0  0  0  0  0  0  0  0  0  0
  -10.0609    1.6199   -6.8055 H   0  0  0  0  0  0  0  0  0  0  0  0
   -9.2212    3.4787   -5.4167 H   0  0  0  0  0  0  0  0  0  0  0  0
  -10.0113    1.7654   -9.2784 H   0  0  0  0  0  0  0  0  0  0  0  0
  -10.3743    4.2982  -15.5338 H   0  0  0  0  0  0  0  0  0  0  0  0
   -8.3065    5.5382   -6.4728 H   0  0  0  0  0  0  0  0  0  0  0  0
  -10.4784    5.4911  -17.6984 H   0  0  0  0  0  0  0  0  0  0  0  0
   -6.0876    4.4815  -15.7771 H   0  0  0  0  0  0  0  0  0  0  0  0
   -8.8298    2.4585  -11.9219 H   0  0  0  0  0  0  0  0  0  0  0  0
  -10.3623    3.3541  -12.0186 H   0  0  0  0  0  0  0  0  0  0  0  0
   -8.3058    7.2814  -11.6356 H   0  0  0  0  0  0  0  0  0  0  0  0
   -6.9486    6.1959  -11.9932 H   0  0  0  0  0  0  0  0  0  0  0  0
   -9.8331    6.0060  -12.9789 H   0  0  0  0  0  0  0  0  0  0  0  0
   -8.3593    6.0533  -13.9513 H   0  0  0  0  0  0  0  0  0  0  0  0
   -7.8149    6.6734   -9.0027 H   0  0  0  0  0  0  0  0  0  0  0  0
  1  2  2  0  0  0  0
  1  3  1  0  0  0  0
  2  5  1  0  0  0  0
  3  8  2  0  0  0  0
  4  6  1  0  0  0  0
  4  9  2  0  0  0  0
  5 11  2  0  0  0  0
  6 13  2  0  0  0  0
  7  9  1  0  0  0  0
  7 18  2  0  0  0  0
  8 10  1  0  0  0  0
  8 11  1  0  0  0  0
  9 14  1  0  0  0  0
 10 12  2  0  0  0  0
 10 15  1  0  0  0  0
 11 19  1  0  0  0  0
 12 16  1  0  0  0  0
 12 19  1  0  0  0  0
 13 18  1  0  0  0  0
 13 22  1  0  0  0  0
 14 20  1  0  0  0  0
 14 21  2  0  0  0  0
 15 20  1  0  0  0  0
 16 17  1  0  0  0  0
 17 20  1  0  0  0  0
  1 23  1  0  0  0  0
  2 24  1  0  0  0  0
  3 25  1  0  0  0  0
  4 26  1  0  0  0  0
  5 27  1  0  0  0  0
  6 28  1  0  0  0  0
  7 29  1  0  0  0  0
 15 30  1  0  0  0  0
 15 31  1  0  0  0  0
 16 32  1  0  0  0  0
 16 33  1  0  0  0  0
 17 34  1  0  0  0  0
 17 35  1  0  0  0  0
 19 36  1  0  0  0  0
M  END
> <id>
EN300-26611236

> <smiles>
ClC=1C=CC(=CN1)C(=O)N2CCC=3NC=4C=CC=CC4C3C2

> <IUPAC Name>
2-chloro-5-{1H,2H,3H,4H,5H-pyrido[4,3-b]indole-2-carbonyl}pyridine

> <CAS>
1099728-03-6

> <URL>
https://www.enaminestore.com/catalog/EN300-26611236

> <ROCS_ShapeQuery>
_x0404_0B

> <ROCS_TanimotoCombo>
0.432 

> <ROCS_ShapeTanimoto>
0.351 

> <ROCS_ColorTanimoto>
0.081 

> <ROCS_RefTversky>
0.311 

> <ROCS_RefColorTversky>
0.086 

> <ROCS_RefTverskyCombo>
0.397 

> <ROCS_FitTversky>
1.576 

> <ROCS_FitColorTversky>
0.591 

> <ROCS_FitTverskyCombo>
2.167 

> <ROCS_ColorScore>
-6.187

> <ROCS_Overlap>
2076.806

> <ROCS_Rank>
394                 

$$$$
untitled-dbase-158364_0
  -OEChem-08222312023D

 39 42  0     1  0  0  0  0  0999 V2000
   -8.7307    5.6632  -10.0730 C   0  0  0  0  0  0  0  0  0  0  0  0
   -9.0014    2.9794  -10.9616 C   0  0  0  0  0  0  0  0  0  0  0  0
   -8.6702    5.3223  -11.4098 C   0  0  0  0  0  0  0  0  0  0  0  0
   -8.9406    4.6295   -9.1495 C   0  0  0  0  0  0  0  0  0  0  0  0
   -8.8029    4.0100  -11.8604 C   0  0  0  0  0  0  0  0  0  0  0  0
   -9.0586    3.2851   -9.5907 C   0  0  0  0  0  0  0  0  0  0  0  0
   -8.4680    6.1925  -12.5737 C   0  0  0  0  0  0  0  0  0  0  0  0
   -8.3074    5.2713  -17.9164 C   0  0  0  0  0  0  0  0  0  0  0  0
   -9.6211    5.4811  -15.7891 C   0  0  0  0  0  0  0  0  0  0  0  0
   -8.9784    4.9445   -7.6742 C   0  0  0  0  0  0  0  0  0  0  0  0
   -8.6977    3.9557  -13.3464 C   0  0  0  0  0  0  0  0  0  0  0  0
   -9.3120    2.1770   -8.5949 C   0  0  0  0  0  0  0  0  0  0  0  0
   -7.0347    5.5474  -17.1519 C   0  0  0  0  0  0  0  0  0  0  0  0
   -7.1447    5.0938  -15.7076 C   0  0  0  0  0  0  0  0  0  0  0  0
   -9.5764    3.8060   -6.8463 C   0  0  0  0  0  0  0  0  0  0  0  0
   -8.3295    5.7838  -15.0507 C   0  0  2  0  0  0  0  0  0  0  0  0
   -9.4756    5.2755  -17.1606 N   0  0  0  0  0  0  0  0  0  0  0  0
   -8.9701    2.5247   -7.2104 N   0  0  0  0  0  0  0  0  0  0  0  0
   -8.4898    5.3583  -13.6858 N   0  0  0  0  0  0  0  0  0  0  0  0
   -8.3177    7.3986  -12.5060 O   0  0  0  0  0  0  0  0  0  0  0  0
   -8.3005    5.1073  -19.1362 O   0  0  0  0  0  0  0  0  0  0  0  0
  -10.7221    5.4916  -15.2388 O   0  0  0  0  0  0  0  0  0  0  0  0
   -8.6202    6.6923   -9.7485 H   0  0  0  0  0  0  0  0  0  0  0  0
   -9.1109    1.9569  -11.3093 H   0  0  0  0  0  0  0  0  0  0  0  0
   -7.9643    5.1506   -7.3117 H   0  0  0  0  0  0  0  0  0  0  0  0
   -9.5761    5.8542   -7.5349 H   0  0  0  0  0  0  0  0  0  0  0  0
   -7.8332    3.3731  -13.6763 H   0  0  0  0  0  0  0  0  0  0  0  0
   -9.6235    3.6058  -13.8114 H   0  0  0  0  0  0  0  0  0  0  0  0
  -10.3724    1.8996   -8.6187 H   0  0  0  0  0  0  0  0  0  0  0  0
   -8.7386    1.2925   -8.8983 H   0  0  0  0  0  0  0  0  0  0  0  0
   -6.2121    5.0159  -17.6425 H   0  0  0  0  0  0  0  0  0  0  0  0
   -6.8297    6.6223  -17.2094 H   0  0  0  0  0  0  0  0  0  0  0  0
   -7.2718    4.0035  -15.6774 H   0  0  0  0  0  0  0  0  0  0  0  0
   -6.2172    5.3343  -15.1753 H   0  0  0  0  0  0  0  0  0  0  0  0
   -9.4403    3.9931   -5.7735 H   0  0  0  0  0  0  0  0  0  0  0  0
  -10.6570    3.7575   -7.0204 H   0  0  0  0  0  0  0  0  0  0  0  0
   -8.1896    6.8713  -15.0437 H   0  0  0  0  0  0  0  0  0  0  0  0
  -10.3356    5.1066  -17.6756 H   0  0  0  0  0  0  0  0  0  0  0  0
   -9.3214    1.7982   -6.5860 H   0  0  0  0  0  0  0  0  0  0  0  0
  1  3  2  0  0  0  0
  1  4  1  0  0  0  0
  2  5  2  0  0  0  0
  2  6  1  0  0  0  0
  3  5  1  0  0  0  0
  3  7  1  0  0  0  0
  4  6  2  0  0  0  0
  4 10  1  0  0  0  0
  5 11  1  0  0  0  0
  6 12  1  0  0  0  0
  7 19  1  0  0  0  0
  7 20  2  0  0  0  0
  8 13  1  0  0  0  0
  8 17  1  0  0  0  0
  8 21  2  0  0  0  0
  9 16  1  0  0  0  0
  9 17  1  0  0  0  0
  9 22  2  0  0  0  0
 10 15  1  0  0  0  0
 11 19  1  0  0  0  0
 12 18  1  0  0  0  0
 13 14  1  0  0  0  0
 14 16  1  0  0  0  0
 15 18  1  0  0  0  0
 16 19  1  0  0  0  0
  1 23  1  0  0  0  0
  2 24  1  0  0  0  0
 10 25  1  0  0  0  0
 10 26  1  0  0  0  0
 11 27  1  0  0  0  0
 11 28  1  0  0  0  0
 12 29  1  0  0  0  0
 12 30  1  0  0  0  0
 13 31  1  0  0  0  0
 13 32  1  0  0  0  0
 14 33  1  0  0  0  0
 14 34  1  0  0  0  0
 15 35  1  0  0  0  0
 15 36  1  0  0  0  0
 16 37  1  0  0  0  0
 17 38  1  0  0  0  0
 18 39  1  0  0  0  0
M  END
> <id>
EN300-39872081

> <smiles>
O=C1N(CC=2C=C3CNCCC3=CC12)C4CCC(=O)NC4=O

> <IUPAC Name>
3-{1-oxo-1H,2H,3H,5H,6H,7H,8H-pyrrolo[3,4-g]isoquinolin-2-yl}piperidine-2,6-dione

> <URL>
https://www.enaminestore.com/catalog/EN300-39872081

> <ROCS_ShapeQuery>
_x0404_0B

> <ROCS_TanimotoCombo>
0.432 

> <ROCS_ShapeTanimoto>
0.366 

> <ROCS_ColorTanimoto>
0.065 

> <ROCS_RefTversky>
0.321 

> <ROCS_RefColorTversky>
0.073 

> <ROCS_RefTverskyCombo>
0.394 

> <ROCS_FitTversky>
1.627 

> <ROCS_FitColorTversky>
0.395 

> <ROCS_FitTverskyCombo>
2.022 

> <ROCS_ColorScore>
-5.252

> <ROCS_Overlap>
2143.760

> <ROCS_Rank>
395                 

$$$$
untitled-dbase-99255_271
  -OEChem-08222312023D

 48 50  0     1  0  0  0  0  0999 V2000
   -8.7300    6.8318  -11.1779 C   0  0  0  0  0  0  0  0  0  0  0  0
   -8.6536    6.2723  -12.4586 C   0  0  0  0  0  0  0  0  0  0  0  0
   -8.9314    6.1923   -8.6570 C   0  0  0  0  0  0  0  0  0  0  0  0
   -8.7856    4.0254  -11.5430 C   0  0  0  0  0  0  0  0  0  0  0  0
   -9.0117    4.9596   -8.0512 C   0  0  0  0  0  0  0  0  0  0  0  0
   -8.8359    5.9795  -10.0608 C   0  0  0  0  0  0  0  0  0  0  0  0
   -8.6812    4.8904  -12.6360 C   0  0  0  0  0  0  0  0  0  0  0  0
   -8.8612    4.5988  -10.2687 C   0  0  0  0  0  0  0  0  0  0  0  0
   -7.5062    5.8073  -15.7333 C   0  0  0  0  0  0  0  0  0  0  0  0
   -6.2782    2.6213  -14.5997 C   0  0  0  0  0  0  0  0  0  0  0  0
   -6.1367    4.1307  -14.4298 C   0  0  0  0  0  0  0  0  0  0  0  0
   -8.6568    2.7711  -14.1920 C   0  0  0  0  0  0  0  0  0  0  0  0
   -8.5959    4.3093  -14.0473 C   0  0  2  0  0  0  0  0  0  0  0  0
   -7.9556    6.7487  -18.3984 C   0  0  0  0  0  0  0  0  0  0  0  0
   -5.9265    5.4037  -19.0174 C   0  0  0  0  0  0  0  0  0  0  0  0
   -7.9594    4.2497  -18.0987 C   0  0  0  0  0  0  0  0  0  0  0  0
   -9.0275    2.5799   -8.7851 C   0  0  0  0  0  0  0  0  0  0  0  0
   -7.1116    5.5204  -18.0612 C   0  0  0  0  0  0  0  0  0  0  0  0
   -8.9683    4.0047   -9.0314 N   0  0  0  0  0  0  0  0  0  0  0  0
   -7.4057    2.0925  -13.8306 N   0  0  0  0  0  0  0  0  0  0  0  0
   -7.3983    4.7989  -14.7671 N   0  0  0  0  0  0  0  0  0  0  0  0
   -8.3321    6.7177  -15.6952 O   0  0  0  0  0  0  0  0  0  0  0  0
   -6.5849    5.6784  -16.7386 O   0  0  0  0  0  0  0  0  0  0  0  0
   -8.7084    7.9107  -11.0540 H   0  0  0  0  0  0  0  0  0  0  0  0
   -8.5715    6.9331  -13.3183 H   0  0  0  0  0  0  0  0  0  0  0  0
   -8.9397    7.1443   -8.1442 H   0  0  0  0  0  0  0  0  0  0  0  0
   -8.8066    2.9484  -11.6788 H   0  0  0  0  0  0  0  0  0  0  0  0
   -9.0956    4.6861   -7.0082 H   0  0  0  0  0  0  0  0  0  0  0  0
   -6.3892    2.3663  -15.6625 H   0  0  0  0  0  0  0  0  0  0  0  0
   -5.3576    2.1354  -14.2535 H   0  0  0  0  0  0  0  0  0  0  0  0
   -5.9121    4.3776  -13.3952 H   0  0  0  0  0  0  0  0  0  0  0  0
   -5.3313    4.5011  -15.0545 H   0  0  0  0  0  0  0  0  0  0  0  0
   -9.4662    2.3625  -13.5778 H   0  0  0  0  0  0  0  0  0  0  0  0
   -8.8979    2.5251  -15.2330 H   0  0  0  0  0  0  0  0  0  0  0  0
   -9.4870    4.7224  -14.6030 H   0  0  0  0  0  0  0  0  0  0  0  0
   -8.8073    6.8360  -17.7143 H   0  0  0  0  0  0  0  0  0  0  0  0
   -7.3675    7.6704  -18.3409 H   0  0  0  0  0  0  0  0  0  0  0  0
   -8.3765    6.6690  -19.4072 H   0  0  0  0  0  0  0  0  0  0  0  0
   -5.3182    4.5238  -18.7792 H   0  0  0  0  0  0  0  0  0  0  0  0
   -5.2635    6.2716  -18.9250 H   0  0  0  0  0  0  0  0  0  0  0  0
   -6.2541    5.3270  -20.0592 H   0  0  0  0  0  0  0  0  0  0  0  0
   -7.3541    3.3686  -17.8568 H   0  0  0  0  0  0  0  0  0  0  0  0
   -8.7937    4.3006  -17.3916 H   0  0  0  0  0  0  0  0  0  0  0  0
   -8.3640    4.0808  -19.1031 H   0  0  0  0  0  0  0  0  0  0  0  0
  -10.0780    2.2779   -8.8028 H   0  0  0  0  0  0  0  0  0  0  0  0
   -8.4650    2.0527   -9.5606 H   0  0  0  0  0  0  0  0  0  0  0  0
   -8.5826    2.3629   -7.8100 H   0  0  0  0  0  0  0  0  0  0  0  0
   -7.5018    1.0939  -14.0127 H   0  0  0  0  0  0  0  0  0  0  0  0
  1  2  1  0  0  0  0
  1  6  2  0  0  0  0
  2  7  2  0  0  0  0
  3  5  2  0  0  0  0
  3  6  1  0  0  0  0
  4  7  1  0  0  0  0
  4  8  2  0  0  0  0
  5 19  1  0  0  0  0
  6  8  1  0  0  0  0
  7 13  1  0  0  0  0
  8 19  1  0  0  0  0
  9 21  1  0  0  0  0
  9 22  2  0  0  0  0
  9 23  1  0  0  0  0
 10 11  1  0  0  0  0
 10 20  1  0  0  0  0
 11 21  1  0  0  0  0
 12 13  1  0  0  0  0
 12 20  1  0  0  0  0
 13 21  1  0  0  0  0
 14 18  1  0  0  0  0
 15 18  1  0  0  0  0
 16 18  1  0  0  0  0
 17 19  1  0  0  0  0
 18 23  1  0  0  0  0
  1 24  1  0  0  0  0
  2 25  1  0  0  0  0
  3 26  1  0  0  0  0
  4 27  1  0  0  0  0
  5 28  1  0  0  0  0
 10 29  1  0  0  0  0
 10 30  1  0  0  0  0
 11 31  1  0  0  0  0
 11 32  1  0  0  0  0
 12 33  1  0  0  0  0
 12 34  1  0  0  0  0
 13 35  1  0  0  0  0
 14 36  1  0  0  0  0
 14 37  1  0  0  0  0
 14 38  1  0  0  0  0
 15 39  1  0  0  0  0
 15 40  1  0  0  0  0
 15 41  1  0  0  0  0
 16 42  1  0  0  0  0
 16 43  1  0  0  0  0
 16 44  1  0  0  0  0
 17 45  1  0  0  0  0
 17 46  1  0  0  0  0
 17 47  1  0  0  0  0
 20 48  1  0  0  0  0
M  END
> <id>
EN300-1887599

> <smiles>
CN1C=CC=2C=CC(=CC12)C3CNCCN3C(=O)OC(C)(C)C

> <IUPAC Name>
tert-butyl 2-(1-methyl-1H-indol-6-yl)piperazine-1-carboxylate

> <CAS>
2228518-64-5

> <URL>
https://www.enaminestore.com/catalog/EN300-1887599

> <ROCS_ShapeQuery>
_x0404_0B

> <ROCS_TanimotoCombo>
0.432 

> <ROCS_ShapeTanimoto>
0.346 

> <ROCS_ColorTanimoto>
0.085 

> <ROCS_RefTversky>
0.309 

> <ROCS_RefColorTversky>
0.090 

> <ROCS_RefTverskyCombo>
0.399 

> <ROCS_FitTversky>
1.540 

> <ROCS_FitColorTversky>
0.622 

> <ROCS_FitTverskyCombo>
2.162 

> <ROCS_ColorScore>
-6.495

> <ROCS_Overlap>
2062.948

> <ROCS_Rank>
396                 

$$$$
untitled-dbase-79552_3
  -OEChem-08222312023D

 57 60  0     1  0  0  0  0  0999 V2000
   -8.9194    5.7375  -18.0446 C   0  0  0  0  0  0  0  0  0  0  0  0
   -8.3356    5.5096  -16.8532 C   0  0  0  0  0  0  0  0  0  0  0  0
   -9.4093    4.6343  -18.9049 C   0  0  0  0  0  0  0  0  0  0  0  0
   -8.8550    3.5169   -9.2379 C   0  0  0  0  0  0  0  0  0  0  0  0
   -9.0890    3.2240  -18.4960 C   0  0  0  0  0  0  0  0  0  0  0  0
   -9.1652    3.1016  -16.9852 C   0  0  0  0  0  0  0  0  0  0  0  0
   -8.7044    5.8701  -10.1539 C   0  0  0  0  0  0  0  0  0  0  0  0
   -8.1947    6.3936  -11.5096 C   0  0  0  0  0  0  0  0  0  0  0  0
   -8.2196    6.6430  -14.6092 C   0  0  0  0  0  0  0  0  0  0  0  0
   -9.1915    2.8999  -12.4984 C   0  0  0  0  0  0  0  0  0  0  0  0
   -7.6773    6.6272  -16.0422 C   0  0  2  0  0  0  0  0  0  0  0  0
   -9.1630    4.4161  -10.3951 C   0  0  1  0  0  0  0  0  0  0  0  0
   -8.6508    5.3281  -12.5015 C   0  0  1  0  0  0  0  0  0  0  0  0
   -8.0326    5.2905  -13.9062 C   0  0  1  0  0  0  0  0  0  0  0  0
   -8.7201    4.1532  -14.7242 C   0  0  2  0  0  0  0  0  0  0  0  0
   -8.7161    2.7882  -13.9640 C   0  0  1  0  0  0  0  0  0  0  0  0
   -8.2356    4.0987  -16.2309 C   0  0  2  0  0  0  0  0  0  0  0  0
   -8.4697    4.0128  -11.7183 C   0  0  2  0  0  0  0  0  0  0  0  0
   -7.6352    3.8550   -8.4242 C   0  0  0  0  0  0  0  0  0  0  0  0
   -7.7777    8.0436  -16.6280 C   0  0  0  0  0  0  0  0  0  0  0  0
   -6.7715    3.6284  -16.3935 C   0  0  0  0  0  0  0  0  0  0  0  0
   -6.9871    3.6376  -11.4597 C   0  0  0  0  0  0  0  0  0  0  0  0
   -9.9918    4.8890  -19.9570 O   0  0  0  0  0  0  0  0  0  0  0  0
   -9.5655    2.5507   -8.9646 O   0  0  0  0  0  0  0  0  0  0  0  0
   -7.4294    2.1858  -13.9947 O   0  0  0  0  0  0  0  0  0  0  0  0
   -9.0055    6.7278  -18.4759 H   0  0  0  0  0  0  0  0  0  0  0  0
   -9.8254    2.5523  -18.9506 H   0  0  0  0  0  0  0  0  0  0  0  0
   -8.0997    2.9579  -18.8810 H   0  0  0  0  0  0  0  0  0  0  0  0
  -10.2084    3.2733  -16.6842 H   0  0  0  0  0  0  0  0  0  0  0  0
   -8.9298    2.0671  -16.7074 H   0  0  0  0  0  0  0  0  0  0  0  0
   -7.9192    5.9502   -9.3940 H   0  0  0  0  0  0  0  0  0  0  0  0
   -9.5506    6.4733   -9.8047 H   0  0  0  0  0  0  0  0  0  0  0  0
   -8.6163    7.3781  -11.7361 H   0  0  0  0  0  0  0  0  0  0  0  0
   -7.1037    6.4930  -11.4995 H   0  0  0  0  0  0  0  0  0  0  0  0
   -7.6983    7.4211  -14.0377 H   0  0  0  0  0  0  0  0  0  0  0  0
   -9.2832    6.9181  -14.6170 H   0  0  0  0  0  0  0  0  0  0  0  0
  -10.2709    3.1008  -12.5066 H   0  0  0  0  0  0  0  0  0  0  0  0
   -9.0539    1.9410  -11.9837 H   0  0  0  0  0  0  0  0  0  0  0  0
   -6.6035    6.4006  -15.9946 H   0  0  0  0  0  0  0  0  0  0  0  0
  -10.2538    4.4047  -10.5225 H   0  0  0  0  0  0  0  0  0  0  0  0
   -9.7321    5.4969  -12.6440 H   0  0  0  0  0  0  0  0  0  0  0  0
   -6.9574    5.0982  -13.8320 H   0  0  0  0  0  0  0  0  0  0  0  0
   -9.7848    4.4394  -14.7675 H   0  0  0  0  0  0  0  0  0  0  0  0
   -9.3955    2.0958  -14.4733 H   0  0  0  0  0  0  0  0  0  0  0  0
   -7.9106    4.5317   -7.6105 H   0  0  0  0  0  0  0  0  0  0  0  0
   -6.8963    4.3490   -9.0599 H   0  0  0  0  0  0  0  0  0  0  0  0
   -7.2150    2.9413   -7.9970 H   0  0  0  0  0  0  0  0  0  0  0  0
   -8.8226    8.3298  -16.7017 H   0  0  0  0  0  0  0  0  0  0  0  0
   -7.3265    8.0578  -17.6155 H   0  0  0  0  0  0  0  0  0  0  0  0
   -7.2549    8.7398  -15.9792 H   0  0  0  0  0  0  0  0  0  0  0  0
   -6.6719    2.6394  -15.9650 H   0  0  0  0  0  0  0  0  0  0  0  0
   -6.1213    4.3236  -15.8782 H   0  0  0  0  0  0  0  0  0  0  0  0
   -6.5272    3.6028  -17.4478 H   0  0  0  0  0  0  0  0  0  0  0  0
   -6.5177    4.4424  -10.9115 H   0  0  0  0  0  0  0  0  0  0  0  0
   -6.4955    3.4961  -12.4120 H   0  0  0  0  0  0  0  0  0  0  0  0
   -6.9576    2.7238  -10.8829 H   0  0  0  0  0  0  0  0  0  0  0  0
   -7.5217    1.3069  -13.5926 H   0  0  0  0  0  0  0  0  0  0  0  0
  1  2  2  0  0  0  0
  1  3  1  0  0  0  0
  2 11  1  0  0  0  0
  2 17  1  0  0  0  0
  3  5  1  0  0  0  0
  3 23  2  0  0  0  0
  4 12  1  6  0  0  0
  4 19  1  0  0  0  0
  4 24  2  0  0  0  0
  5  6  1  0  0  0  0
  6 17  1  0  0  0  0
  7  8  1  0  0  0  0
  7 12  1  0  0  0  0
  8 13  1  6  0  0  0
  9 11  1  0  0  0  0
  9 14  1  1  0  0  0
 10 16  1  0  0  0  0
 10 18  1  0  0  0  0
 11 20  1  1  0  0  0
 12 18  1  0  0  0  0
 13 14  1  0  0  0  0
 13 18  1  0  0  0  0
 14 15  1  0  0  0  0
 15 16  1  6  0  0  0
 15 17  1  0  0  0  0
 16 25  1  6  0  0  0
 17 21  1  6  0  0  0
 18 22  1  6  0  0  0
  1 26  1  0  0  0  0
  5 27  1  0  0  0  0
  5 28  1  0  0  0  0
  6 29  1  0  0  0  0
  6 30  1  0  0  0  0
  7 31  1  0  0  0  0
  7 32  1  0  0  0  0
  8 33  1  0  0  0  0
  8 34  1  0  0  0  0
  9 35  1  0  0  0  0
  9 36  1  0  0  0  0
 10 37  1  0  0  0  0
 10 38  1  0  0  0  0
 11 39  1  0  0  0  0
 12 40  1  0  0  0  0
 13 41  1  0  0  0  0
 14 42  1  0  0  0  0
 15 43  1  0  0  0  0
 16 44  1  0  0  0  0
 19 45  1  0  0  0  0
 19 46  1  0  0  0  0
 19 47  1  0  0  0  0
 20 48  1  0  0  0  0
 20 49  1  0  0  0  0
 20 50  1  0  0  0  0
 21 51  1  0  0  0  0
 21 52  1  0  0  0  0
 21 53  1  0  0  0  0
 22 54  1  0  0  0  0
 22 55  1  0  0  0  0
 22 56  1  0  0  0  0
 25 57  1  0  0  0  0
M  END
> <id>
EN300-19631184

> <smiles>
C[C@H]1C[C@H]2[C@@H]3CC[C@H](C(=O)C)[C@@]3(C)C[C@H](O)[C@@H]2[C@@]4(C)CCC(=O)C=C14

> <MDLNUMBER>
MFCD00056477

> <IUPAC Name>
(1S,3aS,3bS,5S,9aR,9bS,10S,11aS)-1-acetyl-10-hydroxy-5,9a,11a-trimethyl-1H,2H,3H,3aH,3bH,4H,5H,7H,8H,9H,9aH,9bH,10H,11H,11aH-cyclopenta[a]phenanthren-7-one

> <CAS>
2668-66-8

> <URL>
https://www.enaminestore.com/catalog/EN300-19631184

> <ROCS_ShapeQuery>
_x0404_0B

> <ROCS_TanimotoCombo>
0.432 

> <ROCS_ShapeTanimoto>
0.321 

> <ROCS_ColorTanimoto>
0.111 

> <ROCS_RefTversky>
0.294 

> <ROCS_RefColorTversky>
0.116 

> <ROCS_RefTverskyCombo>
0.409 

> <ROCS_FitTversky>
1.404 

> <ROCS_FitColorTversky>
0.733 

> <ROCS_FitTverskyCombo>
2.137 

> <ROCS_ColorScore>
-8.355

> <ROCS_Overlap>
1961.913

> <ROCS_Rank>
397                 

$$$$
untitled-dbase-20914_100
  -OEChem-08222312023D

 53 55  0     0  0  0  0  0  0999 V2000
   -8.6999    4.9612  -16.4328 B   0  0  0  0  0  0  0  0  0  0  0  0
   -9.2355    4.4113  -13.8782 C   0  0  0  0  0  0  0  0  0  0  0  0
   -8.7843    5.2336  -14.8886 C   0  0  0  0  0  0  0  0  0  0  0  0
   -9.1492    5.0336  -12.5957 C   0  0  0  0  0  0  0  0  0  0  0  0
   -8.6375    6.3125  -12.6974 C   0  0  0  0  0  0  0  0  0  0  0  0
   -8.6778    4.7337   -8.9405 C   0  0  0  0  0  0  0  0  0  0  0  0
   -9.5592    4.4276  -11.2907 C   0  0  0  0  0  0  0  0  0  0  0  0
   -8.4091    7.2227  -11.5354 C   0  0  0  0  0  0  0  0  0  0  0  0
   -9.2136    6.7261  -10.3279 C   0  0  0  0  0  0  0  0  0  0  0  0
   -9.3026    4.2770  -18.5337 C   0  0  0  0  0  0  0  0  0  0  0  0
   -7.8667    4.8995  -18.5652 C   0  0  0  0  0  0  0  0  0  0  0  0
  -10.4147    5.1793  -19.1145 C   0  0  0  0  0  0  0  0  0  0  0  0
   -9.4184    2.8989  -19.1999 C   0  0  0  0  0  0  0  0  0  0  0  0
   -7.6560    5.9702  -19.6450 C   0  0  0  0  0  0  0  0  0  0  0  0
   -6.7167    3.8742  -18.6836 C   0  0  0  0  0  0  0  0  0  0  0  0
  -10.7467    3.7786   -7.6391 C   0  0  0  0  0  0  0  0  0  0  0  0
  -10.1461    1.4825   -8.4617 C   0  0  0  0  0  0  0  0  0  0  0  0
   -8.7829    2.5569   -6.6464 C   0  0  0  0  0  0  0  0  0  0  0  0
   -9.6050    2.8002   -7.9112 C   0  0  0  0  0  0  0  0  0  0  0  0
   -9.0986    5.2668  -10.1646 N   0  0  0  0  0  0  0  0  0  0  0  0
   -8.2899    5.4066   -7.9872 O   0  0  0  0  0  0  0  0  0  0  0  0
   -9.5832    4.1169  -17.1057 O   0  0  0  0  0  0  0  0  0  0  0  0
   -7.7351    5.5416  -17.2561 O   0  0  0  0  0  0  0  0  0  0  0  0
   -8.7484    3.3658   -8.9100 O   0  0  0  0  0  0  0  0  0  0  0  0
   -8.2588    6.7519  -14.2955 S   0  0  0  0  0  0  0  0  0  0  0  0
   -9.6124    3.4069  -14.0359 H   0  0  0  0  0  0  0  0  0  0  0  0
  -10.6455    4.3016  -11.2601 H   0  0  0  0  0  0  0  0  0  0  0  0
   -9.0935    3.4431  -11.1705 H   0  0  0  0  0  0  0  0  0  0  0  0
   -7.3465    7.2682  -11.2721 H   0  0  0  0  0  0  0  0  0  0  0  0
   -8.7333    8.2361  -11.8016 H   0  0  0  0  0  0  0  0  0  0  0  0
   -8.8323    7.1769   -9.4030 H   0  0  0  0  0  0  0  0  0  0  0  0
  -10.2606    7.0294  -10.4288 H   0  0  0  0  0  0  0  0  0  0  0  0
  -11.3614    4.6583  -19.0454 H   0  0  0  0  0  0  0  0  0  0  0  0
  -10.1858    5.3959  -20.1504 H   0  0  0  0  0  0  0  0  0  0  0  0
  -10.4549    6.0986  -18.5436 H   0  0  0  0  0  0  0  0  0  0  0  0
  -10.4441    2.5489  -19.1297 H   0  0  0  0  0  0  0  0  0  0  0  0
   -8.7603    2.1975  -18.6954 H   0  0  0  0  0  0  0  0  0  0  0  0
   -9.1324    2.9778  -20.2448 H   0  0  0  0  0  0  0  0  0  0  0  0
   -6.6370    6.3422  -19.5908 H   0  0  0  0  0  0  0  0  0  0  0  0
   -8.3504    6.7892  -19.4817 H   0  0  0  0  0  0  0  0  0  0  0  0
   -7.8319    5.5349  -20.6244 H   0  0  0  0  0  0  0  0  0  0  0  0
   -5.7731    4.4051  -18.6969 H   0  0  0  0  0  0  0  0  0  0  0  0
   -6.8395    3.3136  -19.6017 H   0  0  0  0  0  0  0  0  0  0  0  0
   -6.7538    3.2053  -17.8329 H   0  0  0  0  0  0  0  0  0  0  0  0
  -10.3624    4.7257   -7.2438 H   0  0  0  0  0  0  0  0  0  0  0  0
  -11.3228    3.9886   -8.5461 H   0  0  0  0  0  0  0  0  0  0  0  0
  -11.4297    3.3811   -6.8796 H   0  0  0  0  0  0  0  0  0  0  0  0
   -9.3303    0.7775   -8.6583 H   0  0  0  0  0  0  0  0  0  0  0  0
  -10.6559    1.6396   -9.4191 H   0  0  0  0  0  0  0  0  0  0  0  0
  -10.8501    1.0131   -7.7669 H   0  0  0  0  0  0  0  0  0  0  0  0
   -7.9638    1.8552   -6.8413 H   0  0  0  0  0  0  0  0  0  0  0  0
   -8.3558    3.4871   -6.2578 H   0  0  0  0  0  0  0  0  0  0  0  0
   -9.3993    2.1026   -5.8623 H   0  0  0  0  0  0  0  0  0  0  0  0
  1  3  1  0  0  0  0
  1 22  1  0  0  0  0
  1 23  1  0  0  0  0
  2  3  2  0  0  0  0
  2  4  1  0  0  0  0
  3 25  1  0  0  0  0
  4  5  2  0  0  0  0
  4  7  1  0  0  0  0
  5  8  1  0  0  0  0
  5 25  1  0  0  0  0
  6 20  1  0  0  0  0
  6 21  2  0  0  0  0
  6 24  1  0  0  0  0
  7 20  1  0  0  0  0
  8  9  1  0  0  0  0
  9 20  1  0  0  0  0
 10 11  1  0  0  0  0
 10 12  1  0  0  0  0
 10 13  1  0  0  0  0
 10 22  1  0  0  0  0
 11 14  1  0  0  0  0
 11 15  1  0  0  0  0
 11 23  1  0  0  0  0
 16 19  1  0  0  0  0
 17 19  1  0  0  0  0
 18 19  1  0  0  0  0
 19 24  1  0  0  0  0
  2 26  1  0  0  0  0
  7 27  1  0  0  0  0
  7 28  1  0  0  0  0
  8 29  1  0  0  0  0
  8 30  1  0  0  0  0
  9 31  1  0  0  0  0
  9 32  1  0  0  0  0
 12 33  1  0  0  0  0
 12 34  1  0  0  0  0
 12 35  1  0  0  0  0
 13 36  1  0  0  0  0
 13 37  1  0  0  0  0
 13 38  1  0  0  0  0
 14 39  1  0  0  0  0
 14 40  1  0  0  0  0
 14 41  1  0  0  0  0
 15 42  1  0  0  0  0
 15 43  1  0  0  0  0
 15 44  1  0  0  0  0
 16 45  1  0  0  0  0
 16 46  1  0  0  0  0
 16 47  1  0  0  0  0
 17 48  1  0  0  0  0
 17 49  1  0  0  0  0
 17 50  1  0  0  0  0
 18 51  1  0  0  0  0
 18 52  1  0  0  0  0
 18 53  1  0  0  0  0
M  END
> <id>
EN300-302306

> <smiles>
CC(C)(C)OC(=O)N1CCC=2SC(=CC2C1)B3OC(C)(C)C(C)(C)O3

> <MDLNUMBER>
MFCD27936521

> <IUPAC Name>
tert-butyl 2-(tetramethyl-1,3,2-dioxaborolan-2-yl)-4H,5H,6H,7H-thieno[3,2-c]pyridine-5-carboxylate

> <CAS>
2246556-84-1

> <Purity>
95

> <URL>
https://www.enaminestore.com/catalog/EN300-302306

> <ROCS_ShapeQuery>
_x0404_0B

> <ROCS_TanimotoCombo>
0.432 

> <ROCS_ShapeTanimoto>
0.391 

> <ROCS_ColorTanimoto>
0.041 

> <ROCS_RefTversky>
0.339 

> <ROCS_RefColorTversky>
0.045 

> <ROCS_RefTverskyCombo>
0.385 

> <ROCS_FitTversky>
1.629 

> <ROCS_FitColorTversky>
0.313 

> <ROCS_FitTverskyCombo>
1.942 

> <ROCS_ColorScore>
-3.271

> <ROCS_Overlap>
2266.913

> <ROCS_Rank>
398                 

$$$$
untitled-dbase-157594_221
  -OEChem-08222312023D

 41 43  0     0  0  0  0  0  0999 V2000
   -9.1897    4.7106   -7.9387 C   0  0  0  0  0  0  0  0  0  0  0  0
   -8.4878    5.2064   -9.9453 C   0  0  0  0  0  0  0  0  0  0  0  0
   -8.4615    5.7751  -14.7345 C   0  0  0  0  0  0  0  0  0  0  0  0
   -9.5990    3.8483   -6.8014 C   0  0  0  0  0  0  0  0  0  0  0  0
   -8.5674    2.7539   -9.3280 C   0  0  0  0  0  0  0  0  0  0  0  0
   -9.2895    1.9300   -8.2557 C   0  0  0  0  0  0  0  0  0  0  0  0
   -7.9046    6.3881  -12.3047 C   0  0  0  0  0  0  0  0  0  0  0  0
   -8.8766    4.5024  -12.5250 C   0  0  0  0  0  0  0  0  0  0  0  0
   -7.9537    5.1058  -11.4352 C   0  0  0  0  0  0  0  0  0  0  0  0
   -7.2548    5.5565  -17.3128 C   0  0  0  0  0  0  0  0  0  0  0  0
   -8.3257    3.2868  -17.4176 C   0  0  0  0  0  0  0  0  0  0  0  0
   -9.7615    5.3403  -17.2460 C   0  0  0  0  0  0  0  0  0  0  0  0
   -8.4321    4.7000  -16.8489 C   0  0  0  0  0  0  0  0  0  0  0  0
   -9.2049    6.0216   -8.0513 N   0  0  0  0  0  0  0  0  0  0  0  0
   -8.7576    6.3351   -9.3248 N   0  0  0  0  0  0  0  0  0  0  0  0
   -8.7491    4.1715   -9.1135 N   0  0  0  0  0  0  0  0  0  0  0  0
   -9.0505    2.4877   -6.9176 N   0  0  0  0  0  0  0  0  0  0  0  0
   -8.4090    5.5683  -13.3849 N   0  0  0  0  0  0  0  0  0  0  0  0
   -8.5649    6.8798  -15.2603 O   0  0  0  0  0  0  0  0  0  0  0  0
   -8.3849    4.5953  -15.4216 O   0  0  0  0  0  0  0  0  0  0  0  0
   -9.2638    4.3046   -5.8626 H   0  0  0  0  0  0  0  0  0  0  0  0
  -10.6915    3.7848   -6.7641 H   0  0  0  0  0  0  0  0  0  0  0  0
   -7.4940    2.5395   -9.3196 H   0  0  0  0  0  0  0  0  0  0  0  0
   -8.9700    2.5330  -10.3231 H   0  0  0  0  0  0  0  0  0  0  0  0
  -10.3646    1.9286   -8.4653 H   0  0  0  0  0  0  0  0  0  0  0  0
   -8.9551    0.8851   -8.2869 H   0  0  0  0  0  0  0  0  0  0  0  0
   -8.5958    7.1914  -12.0322 H   0  0  0  0  0  0  0  0  0  0  0  0
   -6.9048    6.7920  -12.4823 H   0  0  0  0  0  0  0  0  0  0  0  0
   -8.5998    3.5007  -12.8630 H   0  0  0  0  0  0  0  0  0  0  0  0
   -9.9537    4.5568  -12.3400 H   0  0  0  0  0  0  0  0  0  0  0  0
   -6.9348    4.5801  -11.4316 H   0  0  0  0  0  0  0  0  0  0  0  0
   -7.3276    6.5717  -16.9066 H   0  0  0  0  0  0  0  0  0  0  0  0
   -6.2966    5.1262  -17.0038 H   0  0  0  0  0  0  0  0  0  0  0  0
   -7.2522    5.6595  -18.4039 H   0  0  0  0  0  0  0  0  0  0  0  0
   -9.1684    2.6688  -17.0873 H   0  0  0  0  0  0  0  0  0  0  0  0
   -7.4180    2.7887  -17.0580 H   0  0  0  0  0  0  0  0  0  0  0  0
   -8.3077    3.2921  -18.5123 H   0  0  0  0  0  0  0  0  0  0  0  0
  -10.6061    4.7262  -16.9133 H   0  0  0  0  0  0  0  0  0  0  0  0
   -9.8714    6.3412  -16.8160 H   0  0  0  0  0  0  0  0  0  0  0  0
   -9.8462    5.4183  -18.3359 H   0  0  0  0  0  0  0  0  0  0  0  0
   -8.0479    2.5155   -6.7346 H   0  0  0  0  0  0  0  0  0  0  0  0
  1  4  1  0  0  0  0
  1 14  2  0  0  0  0
  1 16  1  0  0  0  0
  2  9  1  0  0  0  0
  2 15  2  0  0  0  0
  2 16  1  0  0  0  0
  3 18  1  0  0  0  0
  3 19  2  0  0  0  0
  3 20  1  0  0  0  0
  4 17  1  0  0  0  0
  5  6  1  0  0  0  0
  5 16  1  0  0  0  0
  6 17  1  0  0  0  0
  7  9  1  0  0  0  0
  7 18  1  0  0  0  0
  8  9  1  0  0  0  0
  8 18  1  0  0  0  0
 10 13  1  0  0  0  0
 11 13  1  0  0  0  0
 12 13  1  0  0  0  0
 13 20  1  0  0  0  0
 14 15  1  0  0  0  0
  4 21  1  0  0  0  0
  4 22  1  0  0  0  0
  5 23  1  0  0  0  0
  5 24  1  0  0  0  0
  6 25  1  0  0  0  0
  6 26  1  0  0  0  0
  7 27  1  0  0  0  0
  7 28  1  0  0  0  0
  8 29  1  0  0  0  0
  8 30  1  0  0  0  0
  9 31  1  0  0  0  0
 10 32  1  0  0  0  0
 10 33  1  0  0  0  0
 10 34  1  0  0  0  0
 11 35  1  0  0  0  0
 11 36  1  0  0  0  0
 11 37  1  0  0  0  0
 12 38  1  0  0  0  0
 12 39  1  0  0  0  0
 12 40  1  0  0  0  0
 17 41  1  0  0  0  0
M  END
> <id>
EN300-7544673

> <smiles>
CC(C)(C)OC(=O)N1CC(C1)C2=NN=C3CNCCN23

> <MDLNUMBER>
MFCD34550710

> <IUPAC Name>
tert-butyl 3-{5H,6H,7H,8H-[1,2,4]triazolo[4,3-a]pyrazin-3-yl}azetidine-1-carboxylate

> <CAS>
2703774-96-1

> <Purity>
95

> <URL>
https://www.enaminestore.com/catalog/EN300-7544673

> <ROCS_ShapeQuery>
_x0404_0B

> <ROCS_TanimotoCombo>
0.432 

> <ROCS_ShapeTanimoto>
0.328 

> <ROCS_ColorTanimoto>
0.103 

> <ROCS_RefTversky>
0.292 

> <ROCS_RefColorTversky>
0.110 

> <ROCS_RefTverskyCombo>
0.402 

> <ROCS_FitTversky>
1.609 

> <ROCS_FitColorTversky>
0.629 

> <ROCS_FitTverskyCombo>
2.238 

> <ROCS_ColorScore>
-7.948

> <ROCS_Overlap>
1948.563

> <ROCS_Rank>
399                 

$$$$
untitled-dbase-86011_4
  -OEChem-08222312023D

 63 66  0     1  0  0  0  0  0999 V2000
  -10.0383    3.7691   -7.0869 C   0  0  0  0  0  0  0  0  0  0  0  0
   -9.1269    4.6227   -7.5689 C   0  0  0  0  0  0  0  0  0  0  0  0
  -10.1886    2.4157   -7.6711 C   0  0  0  0  0  0  0  0  0  0  0  0
   -8.9121    6.2533  -15.3024 C   0  0  0  0  0  0  0  0  0  0  0  0
  -10.5495    4.9754  -13.9626 C   0  0  0  0  0  0  0  0  0  0  0  0
   -9.8492    3.9891  -13.0237 C   0  0  0  0  0  0  0  0  0  0  0  0
   -7.7758    2.6723  -11.1968 C   0  0  0  0  0  0  0  0  0  0  0  0
   -8.9169    6.2675  -10.1850 C   0  0  0  0  0  0  0  0  0  0  0  0
   -7.1424    2.2347   -9.8826 C   0  0  0  0  0  0  0  0  0  0  0  0
   -9.5537    6.6676  -11.5164 C   0  0  0  0  0  0  0  0  0  0  0  0
   -9.6769    6.2346  -14.0082 C   0  0  1  0  0  0  0  0  0  0  0  0
   -7.9306    4.1982  -11.2700 C   0  0  2  0  0  0  0  0  0  0  0  0
   -8.7414    4.7392  -10.0645 C   0  0  1  0  0  0  0  0  0  0  0  0
   -8.5082    4.6337  -12.6359 C   0  0  2  0  0  0  0  0  0  0  0  0
   -7.9181    2.7406   -8.6629 C   0  0  1  0  0  0  0  0  0  0  0  0
   -8.1472    4.2802   -8.6819 C   0  0  2  0  0  0  0  0  0  0  0  0
   -8.7742    6.1500  -12.7521 C   0  0  2  0  0  0  0  0  0  0  0  0
   -6.8084    4.9811   -8.3548 C   0  0  0  0  0  0  0  0  0  0  0  0
   -7.4688    6.9515  -12.9057 C   0  0  0  0  0  0  0  0  0  0  0  0
   -7.7374    3.2815  -17.2771 C   0  0  0  0  0  0  0  0  0  0  0  0
   -8.6651    5.4268  -18.1857 C   0  0  0  0  0  0  0  0  0  0  0  0
   -6.5018    5.4306  -16.9173 C   0  0  0  0  0  0  0  0  0  0  0  0
   -7.8886    4.7869  -17.0300 C   0  0  0  0  0  0  0  0  0  0  0  0
   -9.1795    2.0157   -8.5181 N   0  0  0  0  0  0  0  0  0  0  0  0
   -8.6150    4.9983  -15.7985 N   0  0  0  0  0  0  0  0  0  0  0  0
  -11.1711    1.7302   -7.3996 O   0  0  0  0  0  0  0  0  0  0  0  0
   -8.6151    7.3268  -15.8133 O   0  0  0  0  0  0  0  0  0  0  0  0
  -10.7323    4.0672   -6.3097 H   0  0  0  0  0  0  0  0  0  0  0  0
   -9.0983    5.6269   -7.1522 H   0  0  0  0  0  0  0  0  0  0  0  0
  -10.7056    4.5297  -14.9515 H   0  0  0  0  0  0  0  0  0  0  0  0
  -11.5414    5.2161  -13.5619 H   0  0  0  0  0  0  0  0  0  0  0  0
  -10.4885    3.8008  -12.1553 H   0  0  0  0  0  0  0  0  0  0  0  0
   -9.6910    3.0246  -13.5187 H   0  0  0  0  0  0  0  0  0  0  0  0
   -7.1509    2.3229  -12.0276 H   0  0  0  0  0  0  0  0  0  0  0  0
   -8.7493    2.1804  -11.3068 H   0  0  0  0  0  0  0  0  0  0  0  0
   -7.9548    6.7779  -10.0780 H   0  0  0  0  0  0  0  0  0  0  0  0
   -9.5572    6.6400   -9.3774 H   0  0  0  0  0  0  0  0  0  0  0  0
   -7.0696    1.1403   -9.8566 H   0  0  0  0  0  0  0  0  0  0  0  0
   -6.1099    2.6021   -9.8394 H   0  0  0  0  0  0  0  0  0  0  0  0
  -10.5849    6.2923  -11.5238 H   0  0  0  0  0  0  0  0  0  0  0  0
   -9.6364    7.7611  -11.5612 H   0  0  0  0  0  0  0  0  0  0  0  0
  -10.2958    7.1396  -14.0019 H   0  0  0  0  0  0  0  0  0  0  0  0
   -6.9209    4.6266  -11.2129 H   0  0  0  0  0  0  0  0  0  0  0  0
   -9.7505    4.3076  -10.1329 H   0  0  0  0  0  0  0  0  0  0  0  0
   -7.7788    4.3433  -13.4066 H   0  0  0  0  0  0  0  0  0  0  0  0
   -7.3431    2.4687   -7.7662 H   0  0  0  0  0  0  0  0  0  0  0  0
   -6.0933    4.7518   -9.1345 H   0  0  0  0  0  0  0  0  0  0  0  0
   -6.4469    4.6181   -7.4012 H   0  0  0  0  0  0  0  0  0  0  0  0
   -6.9751    6.0496   -8.3065 H   0  0  0  0  0  0  0  0  0  0  0  0
   -6.9259    6.5869  -13.7711 H   0  0  0  0  0  0  0  0  0  0  0  0
   -6.8646    6.8237  -12.0139 H   0  0  0  0  0  0  0  0  0  0  0  0
   -7.7080    8.0011  -13.0389 H   0  0  0  0  0  0  0  0  0  0  0  0
   -7.1841    2.7999  -16.4625 H   0  0  0  0  0  0  0  0  0  0  0  0
   -8.7135    2.7904  -17.3571 H   0  0  0  0  0  0  0  0  0  0  0  0
   -7.1845    3.0869  -18.2035 H   0  0  0  0  0  0  0  0  0  0  0  0
   -8.7862    6.5054  -18.0313 H   0  0  0  0  0  0  0  0  0  0  0  0
   -9.6700    4.9974  -18.2724 H   0  0  0  0  0  0  0  0  0  0  0  0
   -8.1513    5.2787  -19.1420 H   0  0  0  0  0  0  0  0  0  0  0  0
   -6.5804    6.5096  -16.7400 H   0  0  0  0  0  0  0  0  0  0  0  0
   -5.9253    4.9944  -16.0941 H   0  0  0  0  0  0  0  0  0  0  0  0
   -5.9261    5.2951  -17.8402 H   0  0  0  0  0  0  0  0  0  0  0  0
   -9.3184    1.1746   -9.0702 H   0  0  0  0  0  0  0  0  0  0  0  0
   -8.9219    4.1855  -15.2726 H   0  0  0  0  0  0  0  0  0  0  0  0
  1  2  2  0  0  0  0
  1  3  1  0  0  0  0
  2 16  1  0  0  0  0
  3 24  1  0  0  0  0
  3 26  2  0  0  0  0
  4 11  1  1  0  0  0
  4 25  1  0  0  0  0
  4 27  2  0  0  0  0
  5  6  1  0  0  0  0
  5 11  1  0  0  0  0
  6 14  1  0  0  0  0
  7  9  1  0  0  0  0
  7 12  1  0  0  0  0
  8 10  1  0  0  0  0
  8 13  1  0  0  0  0
  9 15  1  0  0  0  0
 10 17  1  0  0  0  0
 11 17  1  0  0  0  0
 12 13  1  0  0  0  0
 12 14  1  0  0  0  0
 13 16  1  0  0  0  0
 14 17  1  0  0  0  0
 15 16  1  0  0  0  0
 15 24  1  0  0  0  0
 16 18  1  1  0  0  0
 17 19  1  1  0  0  0
 20 23  1  0  0  0  0
 21 23  1  0  0  0  0
 22 23  1  0  0  0  0
 23 25  1  0  0  0  0
  1 28  1  0  0  0  0
  2 29  1  0  0  0  0
  5 30  1  0  0  0  0
  5 31  1  0  0  0  0
  6 32  1  0  0  0  0
  6 33  1  0  0  0  0
  7 34  1  0  0  0  0
  7 35  1  0  0  0  0
  8 36  1  0  0  0  0
  8 37  1  0  0  0  0
  9 38  1  0  0  0  0
  9 39  1  0  0  0  0
 10 40  1  0  0  0  0
 10 41  1  0  0  0  0
 11 42  1  0  0  0  0
 12 43  1  0  0  0  0
 13 44  1  0  0  0  0
 14 45  1  0  0  0  0
 15 46  1  0  0  0  0
 18 47  1  0  0  0  0
 18 48  1  0  0  0  0
 18 49  1  0  0  0  0
 19 50  1  0  0  0  0
 19 51  1  0  0  0  0
 19 52  1  0  0  0  0
 20 53  1  0  0  0  0
 20 54  1  0  0  0  0
 20 55  1  0  0  0  0
 21 56  1  0  0  0  0
 21 57  1  0  0  0  0
 21 58  1  0  0  0  0
 22 59  1  0  0  0  0
 22 60  1  0  0  0  0
 22 61  1  0  0  0  0
 24 62  1  0  0  0  0
 25 63  1  0  0  0  0
M  END
> <id>
EN300-27023267

> <smiles>
CC(C)(C)NC(=O)[C@H]1CCC2C3CCC4NC(=O)C=C[C@]4(C)C3CC[C@]12C

> <IUPAC Name>
(4aR,6aS,7S)-N-tert-butyl-4a,6a-dimethyl-2-oxo-1H,2H,4aH,4bH,5H,6H,6aH,7H,8H,9H,9aH,9bH,10H,11H,11aH-indeno[5,4-f]quinoline-7-carboxamide

> <URL>
https://www.enaminestore.com/catalog/EN300-27023267

> <ROCS_ShapeQuery>
_x0404_0B

> <ROCS_TanimotoCombo>
0.432 

> <ROCS_ShapeTanimoto>
0.357 

> <ROCS_ColorTanimoto>
0.075 

> <ROCS_RefTversky>
0.321 

> <ROCS_RefColorTversky>
0.082 

> <ROCS_RefTverskyCombo>
0.403 

> <ROCS_FitTversky>
1.444 

> <ROCS_FitColorTversky>
0.478 

> <ROCS_FitTverskyCombo>
1.921 

> <ROCS_ColorScore>
-5.911

> <ROCS_Overlap>
2148.448

> <ROCS_Rank>
400                 

$$$$
untitled-dbase-91613_751
  -OEChem-08222312023D

 45 47  0     1  0  0  0  0  0999 V2000
   -8.5790    4.9252  -18.5139 C   0  0  0  0  0  0  0  0  0  0  0  0
   -9.6741    4.2607  -18.0142 C   0  0  0  0  0  0  0  0  0  0  0  0
   -8.6728    5.0641  -16.3165 C   0  0  0  0  0  0  0  0  0  0  0  0
   -8.7889    5.3865   -9.1730 C   0  0  0  0  0  0  0  0  0  0  0  0
   -9.1887    4.9587  -13.7871 C   0  0  0  0  0  0  0  0  0  0  0  0
   -8.5371    6.2267  -11.5980 C   0  0  0  0  0  0  0  0  0  0  0  0
   -8.6959    4.0929  -11.3829 C   0  0  0  0  0  0  0  0  0  0  0  0
   -6.8974    4.9207  -14.4630 C   0  0  0  0  0  0  0  0  0  0  0  0
   -8.2646    5.4559  -14.9108 C   0  0  1  0  0  0  0  0  0  0  0  0
   -8.3025    5.0265  -12.5457 C   0  0  0  0  0  0  0  0  0  0  0  0
  -10.5769    3.6935   -8.2879 C   0  0  0  0  0  0  0  0  0  0  0  0
   -8.7193    2.1070   -7.7031 C   0  0  0  0  0  0  0  0  0  0  0  0
   -9.1166    4.1437   -6.2880 C   0  0  0  0  0  0  0  0  0  0  0  0
   -6.7366    6.2209  -17.4292 C   0  0  0  0  0  0  0  0  0  0  0  0
   -9.1717    3.5656   -7.7014 C   0  0  0  0  0  0  0  0  0  0  0  0
   -9.7270    4.3512  -16.6458 N   0  0  0  0  0  0  0  0  0  0  0  0
   -7.9475    5.4351  -17.4145 N   0  0  0  0  0  0  0  0  0  0  0  0
   -8.6810    5.2613  -10.5303 N   0  0  0  0  0  0  0  0  0  0  0  0
   -9.2936    6.3520   -8.6066 O   0  0  0  0  0  0  0  0  0  0  0  0
   -6.9422    4.8957  -13.0286 O   0  0  0  0  0  0  0  0  0  0  0  0
   -8.2412    6.8872  -14.8891 O   0  0  0  0  0  0  0  0  0  0  0  0
   -8.2637    4.2999   -8.5300 O   0  0  0  0  0  0  0  0  0  0  0  0
  -10.9559    3.3367  -19.0354 Br  0  0  0  0  0  0  0  0  0  0  0  0
   -8.2051    5.0758  -19.5176 H   0  0  0  0  0  0  0  0  0  0  0  0
  -10.0963    5.5655  -13.6889 H   0  0  0  0  0  0  0  0  0  0  0  0
   -9.4898    3.9193  -13.9744 H   0  0  0  0  0  0  0  0  0  0  0  0
   -7.6784    6.8892  -11.4572 H   0  0  0  0  0  0  0  0  0  0  0  0
   -9.4386    6.8172  -11.7794 H   0  0  0  0  0  0  0  0  0  0  0  0
   -9.6785    3.6195  -11.4550 H   0  0  0  0  0  0  0  0  0  0  0  0
   -7.9432    3.3519  -11.0990 H   0  0  0  0  0  0  0  0  0  0  0  0
   -6.7146    3.8959  -14.8041 H   0  0  0  0  0  0  0  0  0  0  0  0
   -6.0695    5.5644  -14.7757 H   0  0  0  0  0  0  0  0  0  0  0  0
  -10.9053    4.7390   -8.2884 H   0  0  0  0  0  0  0  0  0  0  0  0
  -10.6217    3.3144   -9.3141 H   0  0  0  0  0  0  0  0  0  0  0  0
  -11.3049    3.1411   -7.6828 H   0  0  0  0  0  0  0  0  0  0  0  0
   -7.7116    2.0106   -7.2831 H   0  0  0  0  0  0  0  0  0  0  0  0
   -8.6663    1.7160   -8.7256 H   0  0  0  0  0  0  0  0  0  0  0  0
   -9.3984    1.4727   -7.1241 H   0  0  0  0  0  0  0  0  0  0  0  0
   -8.1088    4.0521   -5.8671 H   0  0  0  0  0  0  0  0  0  0  0  0
   -9.4027    5.2004   -6.2730 H   0  0  0  0  0  0  0  0  0  0  0  0
   -9.7838    3.5927   -5.6154 H   0  0  0  0  0  0  0  0  0  0  0  0
   -7.0188    7.2739  -17.5112 H   0  0  0  0  0  0  0  0  0  0  0  0
   -6.1776    6.0457  -16.5058 H   0  0  0  0  0  0  0  0  0  0  0  0
   -6.1216    5.9213  -18.2824 H   0  0  0  0  0  0  0  0  0  0  0  0
   -9.1384    7.1872  -15.1094 H   0  0  0  0  0  0  0  0  0  0  0  0
  1  2  2  0  0  0  0
  1 17  1  0  0  0  0
  2 16  1  0  0  0  0
  2 23  1  0  0  0  0
  3  9  1  0  0  0  0
  3 16  2  0  0  0  0
  3 17  1  0  0  0  0
  4 18  1  0  0  0  0
  4 19  2  0  0  0  0
  4 22  1  0  0  0  0
  5  9  1  0  0  0  0
  5 10  1  0  0  0  0
  6 10  1  0  0  0  0
  6 18  1  0  0  0  0
  7 10  1  0  0  0  0
  7 18  1  0  0  0  0
  8  9  1  0  0  0  0
  8 20  1  0  0  0  0
  9 21  1  0  0  0  0
 10 20  1  0  0  0  0
 11 15  1  0  0  0  0
 12 15  1  0  0  0  0
 13 15  1  0  0  0  0
 14 17  1  0  0  0  0
 15 22  1  0  0  0  0
  1 24  1  0  0  0  0
  5 25  1  0  0  0  0
  5 26  1  0  0  0  0
  6 27  1  0  0  0  0
  6 28  1  0  0  0  0
  7 29  1  0  0  0  0
  7 30  1  0  0  0  0
  8 31  1  0  0  0  0
  8 32  1  0  0  0  0
 11 33  1  0  0  0  0
 11 34  1  0  0  0  0
 11 35  1  0  0  0  0
 12 36  1  0  0  0  0
 12 37  1  0  0  0  0
 12 38  1  0  0  0  0
 13 39  1  0  0  0  0
 13 40  1  0  0  0  0
 13 41  1  0  0  0  0
 14 42  1  0  0  0  0
 14 43  1  0  0  0  0
 14 44  1  0  0  0  0
 21 45  1  0  0  0  0
M  END
> <id>
EN300-7428936

> <smiles>
CN1C=C(Br)N=C1C2(O)COC3(CN(C3)C(=O)OC(C)(C)C)C2

> <IUPAC Name>
tert-butyl 7-(4-bromo-1-methyl-1H-imidazol-2-yl)-7-hydroxy-5-oxa-2-azaspiro[3.4]octane-2-carboxylate

> <CAS>
2309455-78-3

> <URL>
https://www.enaminestore.com/catalog/EN300-7428936

> <ROCS_ShapeQuery>
_x0404_0B

> <ROCS_TanimotoCombo>
0.431 

> <ROCS_ShapeTanimoto>
0.369 

> <ROCS_ColorTanimoto>
0.063 

> <ROCS_RefTversky>
0.323 

> <ROCS_RefColorTversky>
0.071 

> <ROCS_RefTverskyCombo>
0.394 

> <ROCS_FitTversky>
1.617 

> <ROCS_FitColorTversky>
0.359 

> <ROCS_FitTverskyCombo>
1.976 

> <ROCS_ColorScore>
-5.108

> <ROCS_Overlap>
2158.838

> <ROCS_Rank>
401                 

$$$$
untitled-dbase-145126_6
  -OEChem-08222312023D

 42 45  0     0  0  0  0  0  0999 V2000
   -8.5050    5.2698  -14.5235 B   0  0  0  0  0  0  0  0  0  0  0  0
   -9.0775    1.9757   -8.0646 C   0  0  0  0  0  0  0  0  0  0  0  0
   -9.1736    2.8370   -6.9743 C   0  0  0  0  0  0  0  0  0  0  0  0
   -8.6807    6.8541  -12.5247 C   0  0  0  0  0  0  0  0  0  0  0  0
   -8.9617    2.4788   -9.3654 C   0  0  0  0  0  0  0  0  0  0  0  0
   -9.1569    4.2234   -7.1491 C   0  0  0  0  0  0  0  0  0  0  0  0
   -8.8008    7.1256  -11.1592 C   0  0  0  0  0  0  0  0  0  0  0  0
   -8.7183    4.4635  -12.1076 C   0  0  0  0  0  0  0  0  0  0  0  0
   -8.6398    5.5435  -12.9941 C   0  0  0  0  0  0  0  0  0  0  0  0
   -8.9429    3.8749   -9.5678 C   0  0  0  0  0  0  0  0  0  0  0  0
   -8.8402    4.7118  -10.7242 C   0  0  0  0  0  0  0  0  0  0  0  0
   -9.0409    4.7115   -8.4558 C   0  0  0  0  0  0  0  0  0  0  0  0
   -8.8784    6.0354  -10.2850 C   0  0  0  0  0  0  0  0  0  0  0  0
   -7.7531    5.4318  -16.6732 C   0  0  0  0  0  0  0  0  0  0  0  0
   -8.8854    4.3533  -16.5798 C   0  0  0  0  0  0  0  0  0  0  0  0
   -6.4756    4.9594  -17.3816 C   0  0  0  0  0  0  0  0  0  0  0  0
   -8.1831    6.7706  -17.3145 C   0  0  0  0  0  0  0  0  0  0  0  0
   -8.3938    2.8891  -16.6367 C   0  0  0  0  0  0  0  0  0  0  0  0
  -10.0088    4.5130  -17.6139 C   0  0  0  0  0  0  0  0  0  0  0  0
   -8.9994    6.0065   -8.9157 N   0  0  0  0  0  0  0  0  0  0  0  0
   -7.4199    5.7140  -15.2748 O   0  0  0  0  0  0  0  0  0  0  0  0
   -9.4599    4.5611  -15.2482 O   0  0  0  0  0  0  0  0  0  0  0  0
   -9.0928    0.9006   -7.9053 H   0  0  0  0  0  0  0  0  0  0  0  0
   -9.2644    2.4261   -5.9721 H   0  0  0  0  0  0  0  0  0  0  0  0
   -8.6220    7.7002  -13.2082 H   0  0  0  0  0  0  0  0  0  0  0  0
   -8.8873    1.7940  -10.2055 H   0  0  0  0  0  0  0  0  0  0  0  0
   -9.2330    4.8937   -6.2994 H   0  0  0  0  0  0  0  0  0  0  0  0
   -8.8349    8.1466  -10.7942 H   0  0  0  0  0  0  0  0  0  0  0  0
   -8.6880    3.4346  -12.4603 H   0  0  0  0  0  0  0  0  0  0  0  0
   -5.7600    5.7720  -17.3939 H   0  0  0  0  0  0  0  0  0  0  0  0
   -6.7231    4.6683  -18.3947 H   0  0  0  0  0  0  0  0  0  0  0  0
   -6.0672    4.1140  -16.8421 H   0  0  0  0  0  0  0  0  0  0  0  0
   -7.3358    7.4498  -17.3350 H   0  0  0  0  0  0  0  0  0  0  0  0
   -8.9860    7.2097  -16.7297 H   0  0  0  0  0  0  0  0  0  0  0  0
   -8.5287    6.5908  -18.3284 H   0  0  0  0  0  0  0  0  0  0  0  0
   -9.2456    2.2191  -16.5652 H   0  0  0  0  0  0  0  0  0  0  0  0
   -7.7156    2.7034  -15.8089 H   0  0  0  0  0  0  0  0  0  0  0  0
   -7.8755    2.7184  -17.5759 H   0  0  0  0  0  0  0  0  0  0  0  0
  -10.7362    3.7247  -17.4664 H   0  0  0  0  0  0  0  0  0  0  0  0
   -9.5838    4.4440  -18.6073 H   0  0  0  0  0  0  0  0  0  0  0  0
  -10.4769    5.4798  -17.4770 H   0  0  0  0  0  0  0  0  0  0  0  0
   -9.0506    6.8263   -8.3269 H   0  0  0  0  0  0  0  0  0  0  0  0
  1  9  1  0  0  0  0
  1 21  1  0  0  0  0
  1 22  1  0  0  0  0
  2  3  2  0  0  0  0
  2  5  1  0  0  0  0
  3  6  1  0  0  0  0
  4  7  1  0  0  0  0
  4  9  2  0  0  0  0
  5 10  2  0  0  0  0
  6 12  2  0  0  0  0
  7 13  2  0  0  0  0
  8  9  1  0  0  0  0
  8 11  2  0  0  0  0
 10 11  1  0  0  0  0
 10 12  1  0  0  0  0
 11 13  1  0  0  0  0
 12 20  1  0  0  0  0
 13 20  1  0  0  0  0
 14 15  1  0  0  0  0
 14 16  1  0  0  0  0
 14 17  1  0  0  0  0
 14 21  1  0  0  0  0
 15 18  1  0  0  0  0
 15 19  1  0  0  0  0
 15 22  1  0  0  0  0
  2 23  1  0  0  0  0
  3 24  1  0  0  0  0
  4 25  1  0  0  0  0
  5 26  1  0  0  0  0
  6 27  1  0  0  0  0
  7 28  1  0  0  0  0
  8 29  1  0  0  0  0
 16 30  1  0  0  0  0
 16 31  1  0  0  0  0
 16 32  1  0  0  0  0
 17 33  1  0  0  0  0
 17 34  1  0  0  0  0
 17 35  1  0  0  0  0
 18 36  1  0  0  0  0
 18 37  1  0  0  0  0
 18 38  1  0  0  0  0
 19 39  1  0  0  0  0
 19 40  1  0  0  0  0
 19 41  1  0  0  0  0
 20 42  1  0  0  0  0
M  END
> <id>
EN300-374119

> <smiles>
CC1(C)OB(OC1(C)C)C=2C=CC=3NC=4C=CC=CC4C3C2

> <MDLNUMBER>
MFCD16996081

> <IUPAC Name>
3-(tetramethyl-1,3,2-dioxaborolan-2-yl)-9H-carbazole

> <CAS>
855738-89-5

> <Purity>
95

> <URL>
https://www.enaminestore.com/catalog/EN300-374119

> <ROCS_ShapeQuery>
_x0404_0B

> <ROCS_TanimotoCombo>
0.431 

> <ROCS_ShapeTanimoto>
0.373 

> <ROCS_ColorTanimoto>
0.058 

> <ROCS_RefTversky>
0.326 

> <ROCS_RefColorTversky>
0.063 

> <ROCS_RefTverskyCombo>
0.388 

> <ROCS_FitTversky>
1.650 

> <ROCS_FitColorTversky>
0.433 

> <ROCS_FitTverskyCombo>
2.083 

> <ROCS_ColorScore>
-4.531

> <ROCS_Overlap>
2173.601

> <ROCS_Rank>
402                 

$$$$
untitled-dbase-37501_82
  -OEChem-08222312023D

 49 51  0     1  0  0  0  0  0999 V2000
   -7.2598    0.8257  -10.1575 C   0  0  0  0  0  0  0  0  0  0  0  0
   -8.2558    1.6983   -8.5303 C   0  0  0  0  0  0  0  0  0  0  0  0
   -7.9548    4.9691  -14.4222 C   0  0  0  0  0  0  0  0  0  0  0  0
   -9.0913    7.0573  -11.6032 C   0  0  0  0  0  0  0  0  0  0  0  0
   -9.2210    6.0970  -10.4178 C   0  0  0  0  0  0  0  0  0  0  0  0
   -9.4181    4.2565   -8.3491 C   0  0  0  0  0  0  0  0  0  0  0  0
   -8.0051    6.6303  -12.5809 C   0  0  0  0  0  0  0  0  0  0  0  0
   -9.7903    3.1720   -7.3358 C   0  0  0  0  0  0  0  0  0  0  0  0
   -8.8378    4.3046  -12.1644 C   0  0  0  0  0  0  0  0  0  0  0  0
   -8.6378    4.7031  -10.6994 C   0  0  2  0  0  0  0  0  0  0  0  0
   -9.2336    3.6609   -9.7565 C   0  0  1  0  0  0  0  0  0  0  0  0
   -8.3562    5.3808  -17.2248 C   0  0  0  0  0  0  0  0  0  0  0  0
   -6.5443    7.1109  -17.0427 C   0  0  0  0  0  0  0  0  0  0  0  0
   -6.0324    4.7054  -16.5330 C   0  0  0  0  0  0  0  0  0  0  0  0
   -7.0934    5.8035  -16.4756 C   0  0  0  0  0  0  0  0  0  0  0  0
   -7.4865    0.6701   -8.8184 N   0  0  0  0  0  0  0  0  0  0  0  0
   -7.8316    1.8897  -10.7253 N   0  0  0  0  0  0  0  0  0  0  0  0
   -8.4344    2.4481   -9.6639 N   0  0  0  0  0  0  0  0  0  0  0  0
   -8.8306    2.0802   -7.3694 N   0  0  0  0  0  0  0  0  0  0  0  0
   -8.2522    5.2811  -13.0918 N   0  0  0  0  0  0  0  0  0  0  0  0
   -6.4901   -0.0949  -10.7943 N   0  0  0  0  0  0  0  0  0  0  0  0
   -8.1305    3.8642  -14.9318 O   0  0  0  0  0  0  0  0  0  0  0  0
   -7.4338    6.0374  -15.1043 O   0  0  0  0  0  0  0  0  0  0  0  0
  -10.0571    7.1213  -12.1274 H   0  0  0  0  0  0  0  0  0  0  0  0
   -8.8735    8.0713  -11.2304 H   0  0  0  0  0  0  0  0  0  0  0  0
   -8.7232    6.5412   -9.5357 H   0  0  0  0  0  0  0  0  0  0  0  0
  -10.2898    6.0073  -10.1434 H   0  0  0  0  0  0  0  0  0  0  0  0
  -10.2243    4.9986   -8.3776 H   0  0  0  0  0  0  0  0  0  0  0  0
   -8.5141    4.7814   -8.0293 H   0  0  0  0  0  0  0  0  0  0  0  0
   -7.9828    7.3055  -13.4481 H   0  0  0  0  0  0  0  0  0  0  0  0
   -7.0249    6.7025  -12.0953 H   0  0  0  0  0  0  0  0  0  0  0  0
   -9.8242    3.5898   -6.3244 H   0  0  0  0  0  0  0  0  0  0  0  0
  -10.7885    2.7832   -7.5601 H   0  0  0  0  0  0  0  0  0  0  0  0
   -8.4101    3.3068  -12.3468 H   0  0  0  0  0  0  0  0  0  0  0  0
   -9.9102    4.2353  -12.4104 H   0  0  0  0  0  0  0  0  0  0  0  0
   -7.5474    4.7430  -10.5011 H   0  0  0  0  0  0  0  0  0  0  0  0
  -10.2274    3.3679  -10.1336 H   0  0  0  0  0  0  0  0  0  0  0  0
   -8.7534    4.4428  -16.8207 H   0  0  0  0  0  0  0  0  0  0  0  0
   -9.1376    6.1451  -17.1617 H   0  0  0  0  0  0  0  0  0  0  0  0
   -8.1392    5.1942  -18.2828 H   0  0  0  0  0  0  0  0  0  0  0  0
   -5.6382    7.4180  -16.5081 H   0  0  0  0  0  0  0  0  0  0  0  0
   -7.2674    7.9249  -16.9174 H   0  0  0  0  0  0  0  0  0  0  0  0
   -6.3050    7.0205  -18.1072 H   0  0  0  0  0  0  0  0  0  0  0  0
   -5.1265    5.0084  -15.9957 H   0  0  0  0  0  0  0  0  0  0  0  0
   -6.3965    3.7697  -16.0965 H   0  0  0  0  0  0  0  0  0  0  0  0
   -5.7279    4.5115  -17.5679 H   0  0  0  0  0  0  0  0  0  0  0  0
   -8.5420    1.6826   -6.4837 H   0  0  0  0  0  0  0  0  0  0  0  0
   -6.3259   -0.0541  -11.8066 H   0  0  0  0  0  0  0  0  0  0  0  0
   -6.1201   -0.9191  -10.3071 H   0  0  0  0  0  0  0  0  0  0  0  0
  1 16  1  0  0  0  0
  1 17  2  0  0  0  0
  1 21  1  0  0  0  0
  2 16  2  0  0  0  0
  2 18  1  0  0  0  0
  2 19  1  0  0  0  0
  3 20  1  0  0  0  0
  3 22  2  0  0  0  0
  3 23  1  0  0  0  0
  4  5  1  0  0  0  0
  4  7  1  0  0  0  0
  5 10  1  0  0  0  0
  6  8  1  0  0  0  0
  6 11  1  0  0  0  0
  7 20  1  0  0  0  0
  8 19  1  0  0  0  0
  9 10  1  0  0  0  0
  9 20  1  0  0  0  0
 10 11  1  0  0  0  0
 11 18  1  0  0  0  0
 12 15  1  0  0  0  0
 13 15  1  0  0  0  0
 14 15  1  0  0  0  0
 15 23  1  0  0  0  0
 17 18  1  0  0  0  0
  4 24  1  0  0  0  0
  4 25  1  0  0  0  0
  5 26  1  0  0  0  0
  5 27  1  0  0  0  0
  6 28  1  0  0  0  0
  6 29  1  0  0  0  0
  7 30  1  0  0  0  0
  7 31  1  0  0  0  0
  8 32  1  0  0  0  0
  8 33  1  0  0  0  0
  9 34  1  0  0  0  0
  9 35  1  0  0  0  0
 10 36  1  0  0  0  0
 11 37  1  0  0  0  0
 12 38  1  0  0  0  0
 12 39  1  0  0  0  0
 12 40  1  0  0  0  0
 13 41  1  0  0  0  0
 13 42  1  0  0  0  0
 13 43  1  0  0  0  0
 14 44  1  0  0  0  0
 14 45  1  0  0  0  0
 14 46  1  0  0  0  0
 19 47  1  0  0  0  0
 21 48  1  0  0  0  0
 21 49  1  0  0  0  0
M  END
> <id>
EN300-1118996

> <smiles>
CC(C)(C)OC(=O)N1CCCC(C1)C2CCNC3=NC(N)=NN23

> <IUPAC Name>
tert-butyl 3-{2-amino-4H,5H,6H,7H-[1,2,4]triazolo[1,5-a]pyrimidin-7-yl}piperidine-1-carboxylate

> <CAS>
1691038-90-0

> <URL>
https://www.enaminestore.com/catalog/EN300-1118996

> <ROCS_ShapeQuery>
_x0404_0B

> <ROCS_TanimotoCombo>
0.431 

> <ROCS_ShapeTanimoto>
0.302 

> <ROCS_ColorTanimoto>
0.130 

> <ROCS_RefTversky>
0.278 

> <ROCS_RefColorTversky>
0.136 

> <ROCS_RefTverskyCombo>
0.414 

> <ROCS_FitTversky>
1.385 

> <ROCS_FitColorTversky>
0.737 

> <ROCS_FitTverskyCombo>
2.122 

> <ROCS_ColorScore>
-9.823

> <ROCS_Overlap>
1859.163

> <ROCS_Rank>
403                 

$$$$
untitled-dbase-123853_8
  -OEChem-08222312023D

 31 34  0     0  0  0  0  0  0999 V2000
   -8.4728    4.8855  -18.8666 C   0  0  0  0  0  0  0  0  0  0  0  0
   -9.1570    4.1075  -17.9371 C   0  0  0  0  0  0  0  0  0  0  0  0
   -9.7833    3.6576  -15.6118 C   0  0  0  0  0  0  0  0  0  0  0  0
   -7.7345    5.9801  -18.4339 C   0  0  0  0  0  0  0  0  0  0  0  0
   -9.7114    3.9958  -14.2682 C   0  0  0  0  0  0  0  0  0  0  0  0
   -9.0400    3.3458  -11.1010 C   0  0  0  0  0  0  0  0  0  0  0  0
   -8.6556    6.8148  -12.1868 C   0  0  0  0  0  0  0  0  0  0  0  0
   -9.1042    4.4236  -16.5689 C   0  0  0  0  0  0  0  0  0  0  0  0
   -8.8796    4.7203  -11.3669 C   0  0  0  0  0  0  0  0  0  0  0  0
   -8.8385    5.5019  -12.5553 C   0  0  0  0  0  0  0  0  0  0  0  0
   -8.3568    5.5336  -16.1225 C   0  0  0  0  0  0  0  0  0  0  0  0
   -8.7171    5.5982  -10.2931 C   0  0  0  0  0  0  0  0  0  0  0  0
   -9.0318    2.9018   -9.7737 C   0  0  0  0  0  0  0  0  0  0  0  0
   -8.7068    5.1687   -8.9613 C   0  0  0  0  0  0  0  0  0  0  0  0
   -8.8677    3.8010   -8.7219 C   0  0  0  0  0  0  0  0  0  0  0  0
   -7.6822    6.2941  -17.0736 C   0  0  0  0  0  0  0  0  0  0  0  0
   -8.9553    5.0989  -13.9275 C   0  0  0  0  0  0  0  0  0  0  0  0
   -8.2851    5.8642  -14.8192 N   0  0  0  0  0  0  0  0  0  0  0  0
   -8.5832    6.8628  -10.8205 N   0  0  0  0  0  0  0  0  0  0  0  0
   -9.1833    1.5961   -9.5126 F   0  0  0  0  0  0  0  0  0  0  0  0
   -8.5498    6.0264   -7.9458 F   0  0  0  0  0  0  0  0  0  0  0  0
   -8.8639    3.3484   -7.4603 F   0  0  0  0  0  0  0  0  0  0  0  0
   -6.7435    7.6725  -16.6032 Cl  0  0  0  0  0  0  0  0  0  0  0  0
   -8.5154    4.6382  -19.9231 H   0  0  0  0  0  0  0  0  0  0  0  0
   -9.7312    3.2523  -18.2861 H   0  0  0  0  0  0  0  0  0  0  0  0
  -10.3715    2.7920  -15.9086 H   0  0  0  0  0  0  0  0  0  0  0  0
   -7.2032    6.5824  -19.1668 H   0  0  0  0  0  0  0  0  0  0  0  0
  -10.2356    3.4030  -13.5258 H   0  0  0  0  0  0  0  0  0  0  0  0
   -9.1689    2.6315  -11.9091 H   0  0  0  0  0  0  0  0  0  0  0  0
   -8.5694    7.7228  -12.7686 H   0  0  0  0  0  0  0  0  0  0  0  0
   -8.4499    7.7042  -10.2766 H   0  0  0  0  0  0  0  0  0  0  0  0
  1  2  2  0  0  0  0
  1  4  1  0  0  0  0
  2  8  1  0  0  0  0
  3  5  1  0  0  0  0
  3  8  2  0  0  0  0
  4 16  2  0  0  0  0
  5 17  2  0  0  0  0
  6  9  1  0  0  0  0
  6 13  2  0  0  0  0
  7 10  2  0  0  0  0
  7 19  1  0  0  0  0
  8 11  1  0  0  0  0
  9 10  1  0  0  0  0
  9 12  2  0  0  0  0
 10 17  1  0  0  0  0
 11 16  1  0  0  0  0
 11 18  2  0  0  0  0
 12 14  1  0  0  0  0
 12 19  1  0  0  0  0
 13 15  1  0  0  0  0
 13 20  1  0  0  0  0
 14 15  2  0  0  0  0
 14 21  1  0  0  0  0
 15 22  1  0  0  0  0
 16 23  1  0  0  0  0
 17 18  1  0  0  0  0
  1 24  1  0  0  0  0
  2 25  1  0  0  0  0
  3 26  1  0  0  0  0
  4 27  1  0  0  0  0
  5 28  1  0  0  0  0
  6 29  1  0  0  0  0
  7 30  1  0  0  0  0
 19 31  1  0  0  0  0
M  END
> <id>
EN300-202635

> <smiles>
FC=1C=C2C(=CNC2=C(F)C1F)C=3C=CC=4C=CC=C(Cl)C4N3

> <MDLNUMBER>
MFCD32663141

> <IUPAC Name>
8-chloro-2-(5,6,7-trifluoro-1H-indol-3-yl)quinoline

> <CAS>
1817719-89-3

> <URL>
https://www.enaminestore.com/catalog/EN300-202635

> <ROCS_ShapeQuery>
_x0404_0B

> <ROCS_TanimotoCombo>
0.431 

> <ROCS_ShapeTanimoto>
0.376 

> <ROCS_ColorTanimoto>
0.056 

> <ROCS_RefTversky>
0.330 

> <ROCS_RefColorTversky>
0.060 

> <ROCS_RefTverskyCombo>
0.389 

> <ROCS_FitTversky>
1.590 

> <ROCS_FitColorTversky>
0.452 

> <ROCS_FitTverskyCombo>
2.042 

> <ROCS_ColorScore>
-4.292

> <ROCS_Overlap>
2202.696

> <ROCS_Rank>
404                 

$$$$
untitled-dbase-93025_653
  -OEChem-08222312023D

 42 44  0     1  0  0  0  0  0999 V2000
   -7.8785    1.0228   -7.6855 C   0  0  0  0  0  0  0  0  0  0  0  0
   -7.2021    0.2528   -8.6408 C   0  0  0  0  0  0  0  0  0  0  0  0
   -7.7123    1.8577  -10.4048 C   0  0  0  0  0  0  0  0  0  0  0  0
   -8.4749    2.2213   -8.1038 C   0  0  0  0  0  0  0  0  0  0  0  0
   -8.3783    2.6037   -9.4347 C   0  0  0  0  0  0  0  0  0  0  0  0
   -7.1216    0.6643   -9.9747 C   0  0  0  0  0  0  0  0  0  0  0  0
   -8.2218    5.3966  -14.1488 C   0  0  0  0  0  0  0  0  0  0  0  0
   -8.7157    6.1129  -10.5752 C   0  0  0  0  0  0  0  0  0  0  0  0
   -8.7230    6.5884  -12.0196 C   0  0  0  0  0  0  0  0  0  0  0  0
   -8.6907    4.1852  -11.9803 C   0  0  0  0  0  0  0  0  0  0  0  0
   -9.2962    4.6889  -10.6607 C   0  0  1  0  0  0  0  0  0  0  0  0
   -6.4320    4.7615  -16.2847 C   0  0  0  0  0  0  0  0  0  0  0  0
   -7.6552    2.5714  -16.4128 C   0  0  0  0  0  0  0  0  0  0  0  0
   -8.8838    4.7176  -16.8515 C   0  0  0  0  0  0  0  0  0  0  0  0
   -7.7648    4.0513  -16.0523 C   0  0  0  0  0  0  0  0  0  0  0  0
   -9.1884    3.1631   -7.4106 N   0  0  0  0  0  0  0  0  0  0  0  0
   -9.5412    4.1207   -8.2613 N   0  0  0  0  0  0  0  0  0  0  0  0
   -9.0577    3.7871   -9.4693 N   0  0  0  0  0  0  0  0  0  0  0  0
   -8.5310    5.3799  -12.7995 N   0  0  0  0  0  0  0  0  0  0  0  0
   -8.0809    6.4215  -14.8121 O   0  0  0  0  0  0  0  0  0  0  0  0
   -6.4542   -0.1123  -10.8760 O   0  0  0  0  0  0  0  0  0  0  0  0
   -8.0881    4.1333  -14.6597 O   0  0  0  0  0  0  0  0  0  0  0  0
   -7.9358    0.6956   -6.6526 H   0  0  0  0  0  0  0  0  0  0  0  0
   -6.7342   -0.6794   -8.3323 H   0  0  0  0  0  0  0  0  0  0  0  0
   -7.6537    2.1828  -11.4375 H   0  0  0  0  0  0  0  0  0  0  0  0
   -7.6895    6.0934  -10.1869 H   0  0  0  0  0  0  0  0  0  0  0  0
   -9.3110    6.7592   -9.9227 H   0  0  0  0  0  0  0  0  0  0  0  0
   -9.6934    7.0138  -12.2978 H   0  0  0  0  0  0  0  0  0  0  0  0
   -7.9410    7.3220  -12.2365 H   0  0  0  0  0  0  0  0  0  0  0  0
   -7.7002    3.7353  -11.8443 H   0  0  0  0  0  0  0  0  0  0  0  0
   -9.3357    3.4578  -12.4837 H   0  0  0  0  0  0  0  0  0  0  0  0
  -10.4130    4.7374  -10.7554 H   0  0  0  0  0  0  0  0  0  0  0  0
   -6.5065    5.8241  -16.0271 H   0  0  0  0  0  0  0  0  0  0  0  0
   -5.6281    4.3152  -15.6903 H   0  0  0  0  0  0  0  0  0  0  0  0
   -6.1454    4.7191  -17.3417 H   0  0  0  0  0  0  0  0  0  0  0  0
   -8.6092    2.0579  -16.2476 H   0  0  0  0  0  0  0  0  0  0  0  0
   -6.9192    2.0679  -15.7755 H   0  0  0  0  0  0  0  0  0  0  0  0
   -7.3623    2.4308  -17.4583 H   0  0  0  0  0  0  0  0  0  0  0  0
   -9.8399    4.2083  -16.6850 H   0  0  0  0  0  0  0  0  0  0  0  0
   -9.0016    5.7714  -16.5792 H   0  0  0  0  0  0  0  0  0  0  0  0
   -8.6840    4.6561  -17.9274 H   0  0  0  0  0  0  0  0  0  0  0  0
   -6.1004   -0.9016  -10.4383 H   0  0  0  0  0  0  0  0  0  0  0  0
  1  2  1  0  0  0  0
  1  4  2  0  0  0  0
  2  6  2  0  0  0  0
  3  5  2  0  0  0  0
  3  6  1  0  0  0  0
  4  5  1  0  0  0  0
  4 16  1  0  0  0  0
  5 18  1  0  0  0  0
  6 21  1  0  0  0  0
  7 19  1  0  0  0  0
  7 20  2  0  0  0  0
  7 22  1  0  0  0  0
  8  9  1  0  0  0  0
  8 11  1  0  0  0  0
  9 19  1  0  0  0  0
 10 11  1  0  0  0  0
 10 19  1  0  0  0  0
 11 18  1  0  0  0  0
 12 15  1  0  0  0  0
 13 15  1  0  0  0  0
 14 15  1  0  0  0  0
 15 22  1  0  0  0  0
 16 17  2  0  0  0  0
 17 18  1  0  0  0  0
  1 23  1  0  0  0  0
  2 24  1  0  0  0  0
  3 25  1  0  0  0  0
  8 26  1  0  0  0  0
  8 27  1  0  0  0  0
  9 28  1  0  0  0  0
  9 29  1  0  0  0  0
 10 30  1  0  0  0  0
 10 31  1  0  0  0  0
 11 32  1  0  0  0  0
 12 33  1  0  0  0  0
 12 34  1  0  0  0  0
 12 35  1  0  0  0  0
 13 36  1  0  0  0  0
 13 37  1  0  0  0  0
 13 38  1  0  0  0  0
 14 39  1  0  0  0  0
 14 40  1  0  0  0  0
 14 41  1  0  0  0  0
 21 42  1  0  0  0  0
M  END
> <id>
EN300-6749241

> <smiles>
CC(C)(C)OC(=O)N1CCC(C1)N2N=NC=3C=CC(O)=CC23

> <IUPAC Name>
tert-butyl 3-(6-hydroxy-1H-1,2,3-benzotriazol-1-yl)pyrrolidine-1-carboxylate

> <CAS>
2287286-47-7

> <URL>
https://www.enaminestore.com/catalog/EN300-6749241

> <ROCS_ShapeQuery>
_x0404_0B

> <ROCS_TanimotoCombo>
0.431 

> <ROCS_ShapeTanimoto>
0.283 

> <ROCS_ColorTanimoto>
0.148 

> <ROCS_RefTversky>
0.264 

> <ROCS_RefColorTversky>
0.152 

> <ROCS_RefTverskyCombo>
0.415 

> <ROCS_FitTversky>
1.346 

> <ROCS_FitColorTversky>
0.866 

> <ROCS_FitTverskyCombo>
2.212 

> <ROCS_ColorScore>
-10.978

> <ROCS_Overlap>
1759.358

> <ROCS_Rank>
405                 

$$$$
untitled-dbase-154286_1836
  -OEChem-08222312023D

 56 57  0     1  0  0  0  0  0999 V2000
   -7.2659    3.0066  -12.9804 C   0  0  0  0  0  0  0  0  0  0  0  0
   -8.6875    5.3788  -16.1083 C   0  0  0  0  0  0  0  0  0  0  0  0
   -8.6980    5.0187   -8.8589 C   0  0  0  0  0  0  0  0  0  0  0  0
   -9.7162    3.3352  -13.0567 C   0  0  0  0  0  0  0  0  0  0  0  0
   -9.7266    3.7134  -14.5419 C   0  0  0  0  0  0  0  0  0  0  0  0
   -8.9433    5.9250  -13.7018 C   0  0  0  0  0  0  0  0  0  0  0  0
   -8.6885    5.8847  -11.1879 C   0  0  0  0  0  0  0  0  0  0  0  0
   -8.4141    3.5124  -10.8606 C   0  0  0  0  0  0  0  0  0  0  0  0
   -8.2002    5.2992  -12.5133 C   0  0  1  0  0  0  0  0  0  0  0  0
   -8.4149    3.7734  -12.3728 C   0  0  1  0  0  0  0  0  0  0  0  0
   -7.1387    4.9469  -18.4749 C   0  0  0  0  0  0  0  0  0  0  0  0
   -9.0800    3.5665  -19.2717 C   0  0  0  0  0  0  0  0  0  0  0  0
   -9.3918    6.0162  -18.8137 C   0  0  0  0  0  0  0  0  0  0  0  0
  -10.9629    4.0226   -7.9973 C   0  0  0  0  0  0  0  0  0  0  0  0
   -9.7265    1.9629   -7.2636 C   0  0  0  0  0  0  0  0  0  0  0  0
   -9.5050    4.0901   -5.9468 C   0  0  0  0  0  0  0  0  0  0  0  0
   -8.6515    4.7451  -18.4002 C   0  0  0  0  0  0  0  0  0  0  0  0
   -9.6921    3.4879   -7.3386 C   0  0  0  0  0  0  0  0  0  0  0  0
   -9.0691    4.9951  -14.8190 N   0  0  0  0  0  0  0  0  0  0  0  0
   -8.5880    4.8088  -10.2247 N   0  0  0  0  0  0  0  0  0  0  0  0
   -7.3693    2.1758  -13.8706 O   0  0  0  0  0  0  0  0  0  0  0  0
   -8.1351    6.4421  -16.3832 O   0  0  0  0  0  0  0  0  0  0  0  0
   -8.8881    6.1174   -8.3420 O   0  0  0  0  0  0  0  0  0  0  0  0
   -6.0933    3.3625  -12.4010 O   0  0  0  0  0  0  0  0  0  0  0  0
   -9.0032    4.4320  -17.0477 O   0  0  0  0  0  0  0  0  0  0  0  0
   -8.5699    3.8548   -8.1487 O   0  0  0  0  0  0  0  0  0  0  0  0
  -10.5807    3.8070  -12.5796 H   0  0  0  0  0  0  0  0  0  0  0  0
   -9.8560    2.2545  -12.9659 H   0  0  0  0  0  0  0  0  0  0  0  0
   -9.2092    2.9420  -15.1441 H   0  0  0  0  0  0  0  0  0  0  0  0
  -10.7702    3.7310  -14.9078 H   0  0  0  0  0  0  0  0  0  0  0  0
   -9.9163    6.3019  -13.3736 H   0  0  0  0  0  0  0  0  0  0  0  0
   -8.3775    6.7873  -14.0746 H   0  0  0  0  0  0  0  0  0  0  0  0
   -8.0856    6.7476  -10.8659 H   0  0  0  0  0  0  0  0  0  0  0  0
   -9.7412    6.2063  -11.2240 H   0  0  0  0  0  0  0  0  0  0  0  0
   -9.2069    2.8219  -10.5314 H   0  0  0  0  0  0  0  0  0  0  0  0
   -7.4562    3.0997  -10.5036 H   0  0  0  0  0  0  0  0  0  0  0  0
   -7.1409    5.5269  -12.6264 H   0  0  0  0  0  0  0  0  0  0  0  0
   -6.8271    5.7921  -17.8507 H   0  0  0  0  0  0  0  0  0  0  0  0
   -6.5960    4.0541  -18.1476 H   0  0  0  0  0  0  0  0  0  0  0  0
   -6.8262    5.1863  -19.4978 H   0  0  0  0  0  0  0  0  0  0  0  0
  -10.1648    3.4180  -19.2211 H   0  0  0  0  0  0  0  0  0  0  0  0
   -8.6241    2.6343  -18.9190 H   0  0  0  0  0  0  0  0  0  0  0  0
   -8.7989    3.7153  -20.3192 H   0  0  0  0  0  0  0  0  0  0  0  0
  -10.4769    5.8717  -18.7602 H   0  0  0  0  0  0  0  0  0  0  0  0
   -9.1243    6.8645  -18.1753 H   0  0  0  0  0  0  0  0  0  0  0  0
   -9.1656    6.2781  -19.8536 H   0  0  0  0  0  0  0  0  0  0  0  0
  -10.9421    5.1169   -8.0530 H   0  0  0  0  0  0  0  0  0  0  0  0
  -11.0904    3.6253   -9.0096 H   0  0  0  0  0  0  0  0  0  0  0  0
  -11.8490    3.7599   -7.4082 H   0  0  0  0  0  0  0  0  0  0  0  0
   -8.8166    1.5749   -6.7917 H   0  0  0  0  0  0  0  0  0  0  0  0
   -9.7652    1.5236   -8.2670 H   0  0  0  0  0  0  0  0  0  0  0  0
  -10.5913    1.6058   -6.6952 H   0  0  0  0  0  0  0  0  0  0  0  0
   -8.5936    3.7067   -5.4741 H   0  0  0  0  0  0  0  0  0  0  0  0
   -9.4411    5.1824   -5.9853 H   0  0  0  0  0  0  0  0  0  0  0  0
  -10.3354    3.8129   -5.2874 H   0  0  0  0  0  0  0  0  0  0  0  0
   -5.3332    2.8729  -12.7816 H   0  0  0  0  0  0  0  0  0  0  0  0
  1 10  1  1  0  0  0
  1 21  2  0  0  0  0
  1 24  1  0  0  0  0
  2 19  1  0  0  0  0
  2 22  2  0  0  0  0
  2 25  1  0  0  0  0
  3 20  1  0  0  0  0
  3 23  2  0  0  0  0
  3 26  1  0  0  0  0
  4  5  1  0  0  0  0
  4 10  1  0  0  0  0
  5 19  1  0  0  0  0
  6  9  1  0  0  0  0
  6 19  1  0  0  0  0
  7  9  1  6  0  0  0
  7 20  1  0  0  0  0
  8 10  1  0  0  0  0
  8 20  1  0  0  0  0
  9 10  1  0  0  0  0
 11 17  1  0  0  0  0
 12 17  1  0  0  0  0
 13 17  1  0  0  0  0
 14 18  1  0  0  0  0
 15 18  1  0  0  0  0
 16 18  1  0  0  0  0
 17 25  1  0  0  0  0
 18 26  1  0  0  0  0
  4 27  1  0  0  0  0
  4 28  1  0  0  0  0
  5 29  1  0  0  0  0
  5 30  1  0  0  0  0
  6 31  1  0  0  0  0
  6 32  1  0  0  0  0
  7 33  1  0  0  0  0
  7 34  1  0  0  0  0
  8 35  1  0  0  0  0
  8 36  1  0  0  0  0
  9 37  1  0  0  0  0
 11 38  1  0  0  0  0
 11 39  1  0  0  0  0
 11 40  1  0  0  0  0
 12 41  1  0  0  0  0
 12 42  1  0  0  0  0
 12 43  1  0  0  0  0
 13 44  1  0  0  0  0
 13 45  1  0  0  0  0
 13 46  1  0  0  0  0
 14 47  1  0  0  0  0
 14 48  1  0  0  0  0
 14 49  1  0  0  0  0
 15 50  1  0  0  0  0
 15 51  1  0  0  0  0
 15 52  1  0  0  0  0
 16 53  1  0  0  0  0
 16 54  1  0  0  0  0
 16 55  1  0  0  0  0
 24 56  1  0  0  0  0
M  END
> <id>
EN300-28300885

> <smiles>
CC(C)(C)OC(=O)N1C[C@@H]2CN(CC[C@@]2(C1)C(=O)O)C(=O)OC(C)(C)C |&1:9,14,r|

> <IUPAC Name>
rac-(3aR,7aS)-2,5-bis[(tert-butoxy)carbonyl]-octahydro-1H-pyrrolo[3,4-c]pyridine-7a-carboxylic acid

> <CAS>
2679927-56-9

> <URL>
https://www.enaminestore.com/catalog/EN300-28300885

> <ROCS_ShapeQuery>
_x0404_0B

> <ROCS_TanimotoCombo>
0.431 

> <ROCS_ShapeTanimoto>
0.361 

> <ROCS_ColorTanimoto>
0.070 

> <ROCS_RefTversky>
0.323 

> <ROCS_RefColorTversky>
0.077 

> <ROCS_RefTverskyCombo>
0.399 

> <ROCS_FitTversky>
1.488 

> <ROCS_FitColorTversky>
0.448 

> <ROCS_FitTverskyCombo>
1.936 

> <ROCS_ColorScore>
-5.544

> <ROCS_Overlap>
2157.148

> <ROCS_Rank>
406                 

$$$$
untitled-dbase-88230_70
  -OEChem-08222312023D

 51 53  0     1  0  0  0  0  0999 V2000
   -9.9421    3.5150   -7.3314 C   0  0  0  0  0  0  0  0  0  0  0  0
   -9.2218    4.7718  -18.6357 C   0  0  0  0  0  0  0  0  0  0  0  0
   -8.7910    4.3025   -7.3538 C   0  0  0  0  0  0  0  0  0  0  0  0
  -10.3475    2.8394   -8.4824 C   0  0  0  0  0  0  0  0  0  0  0  0
  -10.2316    5.2948  -17.8318 C   0  0  0  0  0  0  0  0  0  0  0  0
   -7.9057    4.7659  -18.1811 C   0  0  0  0  0  0  0  0  0  0  0  0
   -8.0454    4.4145   -8.5273 C   0  0  0  0  0  0  0  0  0  0  0  0
   -9.6019    2.9514   -9.6560 C   0  0  0  0  0  0  0  0  0  0  0  0
   -9.9324    5.8122  -16.5682 C   0  0  0  0  0  0  0  0  0  0  0  0
   -7.6054    5.2695  -16.9096 C   0  0  0  0  0  0  0  0  0  0  0  0
   -8.4508    3.7389   -9.6784 C   0  0  0  0  0  0  0  0  0  0  0  0
   -8.6197    5.7903  -16.0865 C   0  0  0  0  0  0  0  0  0  0  0  0
   -8.7319    4.9814  -12.9943 C   0  0  0  0  0  0  0  0  0  0  0  0
   -8.1266    5.0275  -11.7979 C   0  0  0  0  0  0  0  0  0  0  0  0
   -6.1848    5.2308  -16.4923 C   0  0  0  0  0  0  0  0  0  0  0  0
   -6.6959    2.4453  -12.9267 C   0  0  0  0  0  0  0  0  0  0  0  0
   -9.1190    6.2044  -13.7714 C   0  0  0  0  0  0  0  0  0  0  0  0
   -7.5292    2.4819  -11.6541 C   0  0  0  0  0  0  0  0  0  0  0  0
   -4.5129    3.1344  -13.9177 C   0  0  0  0  0  0  0  0  0  0  0  0
   -7.6364    3.8611  -10.9616 C   0  0  2  0  0  0  0  0  0  0  0  0
   -4.6438    4.4690  -14.6689 C   0  0  2  0  0  0  0  0  0  0  0  0
   -4.3530    5.6696  -13.7699 C   0  0  0  0  0  0  0  0  0  0  0  0
   -5.9635    4.6096  -15.2773 N   0  0  0  0  0  0  0  0  0  0  0  0
   -5.4373    3.0042  -12.8026 N   0  0  0  0  0  0  0  0  0  0  0  0
   -5.3284    5.7003  -17.2338 O   0  0  0  0  0  0  0  0  0  0  0  0
   -7.1362    1.9300  -13.9543 O   0  0  0  0  0  0  0  0  0  0  0  0
   -8.2435    6.3501  -14.8951 O   0  0  0  0  0  0  0  0  0  0  0  0
  -10.5218    3.4269   -6.4172 H   0  0  0  0  0  0  0  0  0  0  0  0
   -9.4602    4.3729  -19.6166 H   0  0  0  0  0  0  0  0  0  0  0  0
   -8.4746    4.8277   -6.4574 H   0  0  0  0  0  0  0  0  0  0  0  0
  -11.2430    2.2254   -8.4650 H   0  0  0  0  0  0  0  0  0  0  0  0
  -11.2569    5.3122  -18.1926 H   0  0  0  0  0  0  0  0  0  0  0  0
   -7.1277    4.3575  -18.8201 H   0  0  0  0  0  0  0  0  0  0  0  0
   -7.1500    5.0305   -8.5356 H   0  0  0  0  0  0  0  0  0  0  0  0
   -9.9255    2.4216  -10.5480 H   0  0  0  0  0  0  0  0  0  0  0  0
  -10.7409    6.2471  -15.9852 H   0  0  0  0  0  0  0  0  0  0  0  0
   -8.9837    4.0199  -13.4322 H   0  0  0  0  0  0  0  0  0  0  0  0
   -7.9774    6.0353  -11.3438 H   0  0  0  0  0  0  0  0  0  0  0  0
  -10.1750    6.1337  -14.0968 H   0  0  0  0  0  0  0  0  0  0  0  0
   -9.0217    7.0912  -13.1199 H   0  0  0  0  0  0  0  0  0  0  0  0
   -8.5402    2.0621  -11.8618 H   0  0  0  0  0  0  0  0  0  0  0  0
   -7.0693    1.7421  -10.9611 H   0  0  0  0  0  0  0  0  0  0  0  0
   -4.7268    2.3058  -14.5988 H   0  0  0  0  0  0  0  0  0  0  0  0
   -3.4903    3.0087  -13.5515 H   0  0  0  0  0  0  0  0  0  0  0  0
   -6.5832    4.1239  -10.5751 H   0  0  0  0  0  0  0  0  0  0  0  0
   -3.9026    4.4718  -15.4760 H   0  0  0  0  0  0  0  0  0  0  0  0
   -5.0716    5.7008  -12.9528 H   0  0  0  0  0  0  0  0  0  0  0  0
   -4.4286    6.5892  -14.3473 H   0  0  0  0  0  0  0  0  0  0  0  0
   -3.3483    5.5874  -13.3589 H   0  0  0  0  0  0  0  0  0  0  0  0
   -6.7660    4.2279  -14.7770 H   0  0  0  0  0  0  0  0  0  0  0  0
   -5.1409    3.3712  -11.9045 H   0  0  0  0  0  0  0  0  0  0  0  0
  1  3  2  0  0  0  0
  1  4  1  0  0  0  0
  2  5  2  0  0  0  0
  2  6  1  0  0  0  0
  3  7  1  0  0  0  0
  4  8  2  0  0  0  0
  5  9  1  0  0  0  0
  6 10  2  0  0  0  0
  7 11  2  0  0  0  0
  8 11  1  0  0  0  0
  9 12  2  0  0  0  0
 10 12  1  0  0  0  0
 10 15  1  0  0  0  0
 11 20  1  0  0  0  0
 12 27  1  0  0  0  0
 13 14  2  0  0  0  0
 13 17  1  0  0  0  0
 14 20  1  0  0  0  0
 15 23  1  0  0  0  0
 15 25  2  0  0  0  0
 16 18  1  0  0  0  0
 16 24  1  0  0  0  0
 16 26  2  0  0  0  0
 17 27  1  0  0  0  0
 18 20  1  0  0  0  0
 19 21  1  0  0  0  0
 19 24  1  0  0  0  0
 21 22  1  1  0  0  0
 21 23  1  0  0  0  0
  1 28  1  0  0  0  0
  2 29  1  0  0  0  0
  3 30  1  0  0  0  0
  4 31  1  0  0  0  0
  5 32  1  0  0  0  0
  6 33  1  0  0  0  0
  7 34  1  0  0  0  0
  8 35  1  0  0  0  0
  9 36  1  0  0  0  0
 13 37  1  0  0  0  0
 14 38  1  0  0  0  0
 17 39  1  0  0  0  0
 17 40  1  0  0  0  0
 18 41  1  0  0  0  0
 18 42  1  0  0  0  0
 19 43  1  0  0  0  0
 19 44  1  0  0  0  0
 20 45  1  0  0  0  0
 21 46  1  0  0  0  0
 22 47  1  0  0  0  0
 22 48  1  0  0  0  0
 22 49  1  0  0  0  0
 23 50  1  0  0  0  0
 24 51  1  0  0  0  0
M  END
> <id>
EN300-6490457

> <smiles>
C[C@H]1CNC(=O)CC(/C=C/COC=2C=CC=CC2C(=O)N1)C=3C=CC=CC3

> <MDLNUMBER>
MFCD31719839

> <IUPAC Name>
(3E,10S)-10-methyl-5-phenyl-5,6,7,8,9,10,11,12-octahydro-2H-1,8,11-benzoxadiazacyclotetradecine-7,12-dione

> <CAS>
2253620-92-5

> <URL>
https://www.enaminestore.com/catalog/EN300-6490457

> <ROCS_ShapeQuery>
_x0404_0B

> <ROCS_TanimotoCombo>
0.431 

> <ROCS_ShapeTanimoto>
0.329 

> <ROCS_ColorTanimoto>
0.102 

> <ROCS_RefTversky>
0.303 

> <ROCS_RefColorTversky>
0.106 

> <ROCS_RefTverskyCombo>
0.409 

> <ROCS_FitTversky>
1.359 

> <ROCS_FitColorTversky>
0.734 

> <ROCS_FitTverskyCombo>
2.094 

> <ROCS_ColorScore>
-7.659

> <ROCS_Overlap>
2022.726

> <ROCS_Rank>
407                 

$$$$
untitled-dbase-83660_6
  -OEChem-08222312023D

 63 66  0     1  0  0  0  0  0999 V2000
   -9.1171    1.5551   -8.0157 C   0  0  0  0  0  0  0  0  0  0  0  0
   -9.3002    2.2914   -9.1221 C   0  0  0  0  0  0  0  0  0  0  0  0
   -9.0748    2.1987   -6.6738 C   0  0  0  0  0  0  0  0  0  0  0  0
   -8.0074    5.9673  -15.2063 C   0  0  0  0  0  0  0  0  0  0  0  0
   -6.5753    6.5761  -13.2524 C   0  0  0  0  0  0  0  0  0  0  0  0
   -6.7390    6.5260  -11.7442 C   0  0  0  0  0  0  0  0  0  0  0  0
   -8.0721    6.4910   -8.9751 C   0  0  0  0  0  0  0  0  0  0  0  0
   -9.5259    4.0371  -11.7005 C   0  0  0  0  0  0  0  0  0  0  0  0
   -8.5940    5.8058   -7.7115 C   0  0  0  0  0  0  0  0  0  0  0  0
  -10.0001    5.1787  -12.5981 C   0  0  0  0  0  0  0  0  0  0  0  0
   -7.7851    5.7899  -13.7358 C   0  0  1  0  0  0  0  0  0  0  0  0
   -8.8124    6.0383  -10.2476 C   0  0  2  0  0  0  0  0  0  0  0  0
   -8.8496    4.4897  -10.3849 C   0  0  1  0  0  0  0  0  0  0  0  0
   -8.2468    6.7278  -11.5092 C   0  0  2  0  0  0  0  0  0  0  0  0
   -8.5667    4.2903   -7.8933 C   0  0  2  0  0  0  0  0  0  0  0  0
   -9.4288    3.8084   -9.0939 C   0  0  2  0  0  0  0  0  0  0  0  0
   -8.9499    6.2825  -12.8325 C   0  0  2  0  0  0  0  0  0  0  0  0
  -10.9309    4.1358   -8.8993 C   0  0  0  0  0  0  0  0  0  0  0  0
   -9.6789    7.5032  -13.4412 C   0  0  0  0  0  0  0  0  0  0  0  0
   -8.0108    3.2812  -17.8323 C   0  0  0  0  0  0  0  0  0  0  0  0
   -9.5326    5.2703  -17.7053 C   0  0  0  0  0  0  0  0  0  0  0  0
   -7.0694    5.5926  -18.0477 C   0  0  0  0  0  0  0  0  0  0  0  0
   -8.1388    4.7346  -17.3617 C   0  0  0  0  0  0  0  0  0  0  0  0
   -8.9115    3.5707   -6.6782 N   0  0  0  0  0  0  0  0  0  0  0  0
   -7.9506    4.7914  -15.9298 N   0  0  0  0  0  0  0  0  0  0  0  0
   -9.1864    1.5206   -5.6560 O   0  0  0  0  0  0  0  0  0  0  0  0
   -8.2170    7.0883  -15.6548 O   0  0  0  0  0  0  0  0  0  0  0  0
   -9.0668    0.4737   -8.0602 H   0  0  0  0  0  0  0  0  0  0  0  0
   -9.3941    1.7697  -10.0683 H   0  0  0  0  0  0  0  0  0  0  0  0
   -6.5516    7.5929  -13.6155 H   0  0  0  0  0  0  0  0  0  0  0  0
   -5.6587    6.0770  -13.5383 H   0  0  0  0  0  0  0  0  0  0  0  0
   -6.3852    5.5694  -11.3654 H   0  0  0  0  0  0  0  0  0  0  0  0
   -6.1630    7.3115  -11.2565 H   0  0  0  0  0  0  0  0  0  0  0  0
   -8.1646    7.5775   -8.8582 H   0  0  0  0  0  0  0  0  0  0  0  0
   -7.0006    6.2753   -9.0663 H   0  0  0  0  0  0  0  0  0  0  0  0
  -10.3808    3.3689  -11.4818 H   0  0  0  0  0  0  0  0  0  0  0  0
   -8.8277    3.4156  -12.2927 H   0  0  0  0  0  0  0  0  0  0  0  0
   -7.9560    6.0956   -6.8669 H   0  0  0  0  0  0  0  0  0  0  0  0
   -9.6048    6.1607   -7.4792 H   0  0  0  0  0  0  0  0  0  0  0  0
  -10.3238    4.7393  -13.5561 H   0  0  0  0  0  0  0  0  0  0  0  0
  -10.9135    5.6184  -12.1641 H   0  0  0  0  0  0  0  0  0  0  0  0
   -7.6190    4.6973  -13.5814 H   0  0  0  0  0  0  0  0  0  0  0  0
   -9.8463    6.3868  -10.1499 H   0  0  0  0  0  0  0  0  0  0  0  0
   -7.7901    4.1385  -10.4504 H   0  0  0  0  0  0  0  0  0  0  0  0
   -8.4098    7.8134  -11.3803 H   0  0  0  0  0  0  0  0  0  0  0  0
   -7.5191    4.0081   -8.0844 H   0  0  0  0  0  0  0  0  0  0  0  0
  -11.0526    5.2104   -8.8754 H   0  0  0  0  0  0  0  0  0  0  0  0
  -11.2635    3.7020   -7.9658 H   0  0  0  0  0  0  0  0  0  0  0  0
  -11.4885    3.7155   -9.7256 H   0  0  0  0  0  0  0  0  0  0  0  0
   -8.9606    8.2968  -13.6164 H   0  0  0  0  0  0  0  0  0  0  0  0
  -10.4409    7.8452  -12.7492 H   0  0  0  0  0  0  0  0  0  0  0  0
  -10.1396    7.2124  -14.3791 H   0  0  0  0  0  0  0  0  0  0  0  0
   -7.0202    2.8745  -17.5974 H   0  0  0  0  0  0  0  0  0  0  0  0
   -8.7596    2.6399  -17.3546 H   0  0  0  0  0  0  0  0  0  0  0  0
   -8.1433    3.2044  -18.9178 H   0  0  0  0  0  0  0  0  0  0  0  0
   -9.6484    6.3100  -17.3779 H   0  0  0  0  0  0  0  0  0  0  0  0
  -10.3147    4.6853  -17.2076 H   0  0  0  0  0  0  0  0  0  0  0  0
   -9.7193    5.2338  -18.7843 H   0  0  0  0  0  0  0  0  0  0  0  0
   -7.1381    6.6391  -17.7286 H   0  0  0  0  0  0  0  0  0  0  0  0
   -6.0606    5.2341  -17.8149 H   0  0  0  0  0  0  0  0  0  0  0  0
   -7.1888    5.5777  -19.1373 H   0  0  0  0  0  0  0  0  0  0  0  0
   -9.0351    4.0877   -5.8131 H   0  0  0  0  0  0  0  0  0  0  0  0
   -7.7680    3.9255  -15.4315 H   0  0  0  0  0  0  0  0  0  0  0  0
  1  2  2  0  0  0  0
  1  3  1  0  0  0  0
  2 16  1  0  0  0  0
  3 24  1  0  0  0  0
  3 26  2  0  0  0  0
  4 11  1  1  0  0  0
  4 25  1  0  0  0  0
  4 27  2  0  0  0  0
  5  6  1  0  0  0  0
  5 11  1  0  0  0  0
  6 14  1  0  0  0  0
  7  9  1  0  0  0  0
  7 12  1  0  0  0  0
  8 10  1  0  0  0  0
  8 13  1  0  0  0  0
  9 15  1  1  0  0  0
 10 17  1  0  0  0  0
 11 17  1  0  0  0  0
 12 13  1  0  0  0  0
 12 14  1  0  0  0  0
 13 16  1  0  0  0  0
 14 17  1  0  0  0  0
 15 16  1  0  0  0  0
 15 24  1  0  0  0  0
 16 18  1  1  0  0  0
 17 19  1  1  0  0  0
 20 23  1  0  0  0  0
 21 23  1  0  0  0  0
 22 23  1  0  0  0  0
 23 25  1  0  0  0  0
  1 28  1  0  0  0  0
  2 29  1  0  0  0  0
  5 30  1  0  0  0  0
  5 31  1  0  0  0  0
  6 32  1  0  0  0  0
  6 33  1  0  0  0  0
  7 34  1  0  0  0  0
  7 35  1  0  0  0  0
  8 36  1  0  0  0  0
  8 37  1  0  0  0  0
  9 38  1  0  0  0  0
  9 39  1  0  0  0  0
 10 40  1  0  0  0  0
 10 41  1  0  0  0  0
 11 42  1  0  0  0  0
 12 43  1  0  0  0  0
 13 44  1  0  0  0  0
 14 45  1  0  0  0  0
 15 46  1  0  0  0  0
 18 47  1  0  0  0  0
 18 48  1  0  0  0  0
 18 49  1  0  0  0  0
 19 50  1  0  0  0  0
 19 51  1  0  0  0  0
 19 52  1  0  0  0  0
 20 53  1  0  0  0  0
 20 54  1  0  0  0  0
 20 55  1  0  0  0  0
 21 56  1  0  0  0  0
 21 57  1  0  0  0  0
 21 58  1  0  0  0  0
 22 59  1  0  0  0  0
 22 60  1  0  0  0  0
 22 61  1  0  0  0  0
 24 62  1  0  0  0  0
 25 63  1  0  0  0  0
M  END
> <id>
EN300-20277968

> <smiles>
CC(C)(C)NC(=O)[C@H]1CCC2C3CC[C@H]4NC(=O)C=C[C@]4(C)C3CC[C@]12C

> <MDLNUMBER>
MFCD08283037

> <IUPAC Name>
(4aR,6aS,7S,11aR)-N-tert-butyl-4a,6a-dimethyl-2-oxo-1H,2H,4aH,4bH,5H,6H,6aH,7H,8H,9H,9aH,9bH,10H,11H,11aH-indeno[5,4-f]quinoline-7-carboxamide

> <URL>
https://www.enaminestore.com/catalog/EN300-20277968

> <ROCS_ShapeQuery>
_x0404_0B

> <ROCS_TanimotoCombo>
0.431 

> <ROCS_ShapeTanimoto>
0.366 

> <ROCS_ColorTanimoto>
0.065 

> <ROCS_RefTversky>
0.328 

> <ROCS_RefColorTversky>
0.071 

> <ROCS_RefTverskyCombo>
0.399 

> <ROCS_FitTversky>
1.473 

> <ROCS_FitColorTversky>
0.416 

> <ROCS_FitTverskyCombo>
1.889 

> <ROCS_ColorScore>
-5.150

> <ROCS_Overlap>
2190.946

> <ROCS_Rank>
408                 

$$$$
untitled-dbase-128453_88
  -OEChem-08222312023D

 37 39  0     0  0  0  0  0  0999 V2000
   -9.2382    3.0505   -6.9079 C   0  0  0  0  0  0  0  0  0  0  0  0
   -9.4273    2.3028   -8.0522 C   0  0  0  0  0  0  0  0  0  0  0  0
   -8.8998    4.3732   -7.1081 C   0  0  0  0  0  0  0  0  0  0  0  0
   -9.1734    4.4882  -16.0849 C   0  0  0  0  0  0  0  0  0  0  0  0
   -8.6992    4.0535  -17.2909 C   0  0  0  0  0  0  0  0  0  0  0  0
   -7.5465    5.8552  -16.7127 C   0  0  0  0  0  0  0  0  0  0  0  0
   -8.9658    4.1010   -9.3639 C   0  0  0  0  0  0  0  0  0  0  0  0
   -8.6155    6.3408  -14.5701 C   0  0  0  0  0  0  0  0  0  0  0  0
   -9.0356    3.8235  -11.8310 C   0  0  0  0  0  0  0  0  0  0  0  0
   -8.4636    6.0539  -10.8141 C   0  0  0  0  0  0  0  0  0  0  0  0
   -8.2544    4.3718  -13.0243 C   0  0  0  0  0  0  0  0  0  0  0  0
   -8.9676    6.5866  -12.1512 C   0  0  0  0  0  0  0  0  0  0  0  0
   -6.9221    4.8368  -18.8756 C   0  0  0  0  0  0  0  0  0  0  0  0
   -9.2989    2.7977   -9.3008 N   0  0  0  0  0  0  0  0  0  0  0  0
   -8.7545    4.9336   -8.3268 N   0  0  0  0  0  0  0  0  0  0  0  0
   -8.4088    5.5857  -15.7242 N   0  0  0  0  0  0  0  0  0  0  0  0
   -7.6927    4.9110  -17.6516 N   0  3  0  0  0  0  0  0  0  0  0  0
   -8.8258    4.6467  -10.6388 N   0  0  0  0  0  0  0  0  0  0  0  0
   -8.5423    5.7789  -13.2891 N   0  0  0  0  0  0  0  0  0  0  0  0
   -8.8597    7.5304  -14.7696 O   0  0  0  0  0  0  0  0  0  0  0  0
   -9.3462    2.6279   -5.9181 H   0  0  0  0  0  0  0  0  0  0  0  0
   -9.6962    1.2533   -7.9952 H   0  0  0  0  0  0  0  0  0  0  0  0
   -8.7301    5.0390   -6.2687 H   0  0  0  0  0  0  0  0  0  0  0  0
   -9.9463    4.1452  -15.4229 H   0  0  0  0  0  0  0  0  0  0  0  0
   -8.9460    3.2483  -17.9558 H   0  0  0  0  0  0  0  0  0  0  0  0
   -6.8741    6.6927  -16.7890 H   0  0  0  0  0  0  0  0  0  0  0  0
  -10.1074    3.7999  -12.0622 H   0  0  0  0  0  0  0  0  0  0  0  0
   -8.7231    2.7873  -11.6502 H   0  0  0  0  0  0  0  0  0  0  0  0
   -7.3730    6.1630  -10.7596 H   0  0  0  0  0  0  0  0  0  0  0  0
   -8.8957    6.6539  -10.0042 H   0  0  0  0  0  0  0  0  0  0  0  0
   -7.1804    4.2902  -12.8223 H   0  0  0  0  0  0  0  0  0  0  0  0
   -8.4862    3.7741  -13.9112 H   0  0  0  0  0  0  0  0  0  0  0  0
  -10.0648    6.6085  -12.1612 H   0  0  0  0  0  0  0  0  0  0  0  0
   -8.6278    7.6182  -12.2989 H   0  0  0  0  0  0  0  0  0  0  0  0
   -7.4231    5.4296  -19.6458 H   0  0  0  0  0  0  0  0  0  0  0  0
   -5.9127    5.2261  -18.7155 H   0  0  0  0  0  0  0  0  0  0  0  0
   -6.8478    3.7954  -19.2018 H   0  0  0  0  0  0  0  0  0  0  0  0
  1  2  2  0  0  0  0
  1  3  1  0  0  0  0
  2 14  1  0  0  0  0
  3 15  2  0  0  0  0
  4  5  2  0  0  0  0
  4 16  1  0  0  0  0
  5 17  1  0  0  0  0
  6 16  1  0  0  0  0
  6 17  2  0  0  0  0
  7 14  2  0  0  0  0
  7 15  1  0  0  0  0
  7 18  1  0  0  0  0
  8 16  1  0  0  0  0
  8 19  1  0  0  0  0
  8 20  2  0  0  0  0
  9 11  1  0  0  0  0
  9 18  1  0  0  0  0
 10 12  1  0  0  0  0
 10 18  1  0  0  0  0
 11 19  1  0  0  0  0
 12 19  1  0  0  0  0
 13 17  1  0  0  0  0
  1 21  1  0  0  0  0
  2 22  1  0  0  0  0
  3 23  1  0  0  0  0
  4 24  1  0  0  0  0
  5 25  1  0  0  0  0
  6 26  1  0  0  0  0
  9 27  1  0  0  0  0
  9 28  1  0  0  0  0
 10 29  1  0  0  0  0
 10 30  1  0  0  0  0
 11 31  1  0  0  0  0
 11 32  1  0  0  0  0
 12 33  1  0  0  0  0
 12 34  1  0  0  0  0
 13 35  1  0  0  0  0
 13 36  1  0  0  0  0
 13 37  1  0  0  0  0
M  CHG  1  17   1
M  END
> <id>
EN300-88218

> <smiles>
[I-].C[N+]=1C=CN(C1)C(=O)N2CCN(CC2)C=3N=CC=CN3

> <MDLNUMBER>
MFCD11099742

> <IUPAC Name>
3-methyl-1-[4-(pyrimidin-2-yl)piperazine-1-carbonyl]-1H-imidazol-3-ium iodide

> <CAS>
1231953-89-1

> <Purity>
85

> <URL>
https://www.enaminestore.com/catalog/EN300-88218

> <Saltdate>
[I-]

> <ROCS_ShapeQuery>
_x0404_0B

> <ROCS_TanimotoCombo>
0.431 

> <ROCS_ShapeTanimoto>
0.362 

> <ROCS_ColorTanimoto>
0.069 

> <ROCS_RefTversky>
0.315 

> <ROCS_RefColorTversky>
0.074 

> <ROCS_RefTverskyCombo>
0.389 

> <ROCS_FitTversky>
1.706 

> <ROCS_FitColorTversky>
0.508 

> <ROCS_FitTverskyCombo>
2.215 

> <ROCS_ColorScore>
-5.305

> <ROCS_Overlap>
2102.075

> <ROCS_Rank>
409                 

$$$$
untitled-dbase-108526_342
  -OEChem-08222312023D

 45 47  0     0  0  0  0  0  0999 V2000
   -8.7271    6.6686  -17.3283 C   0  0  0  0  0  0  0  0  0  0  0  0
   -8.2619    5.7666  -18.2886 C   0  0  0  0  0  0  0  0  0  0  0  0
   -8.7626    6.3242  -15.9701 C   0  0  0  0  0  0  0  0  0  0  0  0
   -7.8161    4.4911  -17.9297 C   0  0  0  0  0  0  0  0  0  0  0  0
   -8.3188    5.0465  -15.5865 C   0  0  0  0  0  0  0  0  0  0  0  0
   -8.1977    4.3382  -14.3620 C   0  0  0  0  0  0  0  0  0  0  0  0
   -7.8631    4.1775  -16.5726 C   0  0  0  0  0  0  0  0  0  0  0  0
   -7.6834    3.1021  -14.6782 C   0  0  0  0  0  0  0  0  0  0  0  0
   -7.9570    5.8883  -12.4544 C   0  0  0  0  0  0  0  0  0  0  0  0
   -8.5460    4.8069  -12.9993 C   0  0  0  0  0  0  0  0  0  0  0  0
   -9.1012    5.4247   -8.9204 C   0  0  0  0  0  0  0  0  0  0  0  0
   -8.2375    6.4030  -11.0728 C   0  0  0  0  0  0  0  0  0  0  0  0
   -9.5784    4.0252  -12.2238 C   0  0  0  0  0  0  0  0  0  0  0  0
  -10.1744    4.8359  -11.0752 C   0  0  0  0  0  0  0  0  0  0  0  0
   -8.1400    4.3161   -6.4635 C   0  0  0  0  0  0  0  0  0  0  0  0
   -9.0769    2.1385   -7.2938 C   0  0  0  0  0  0  0  0  0  0  0  0
   -7.2357    3.2751   -8.5691 C   0  0  0  0  0  0  0  0  0  0  0  0
   -8.4748    3.4821   -7.6993 C   0  0  0  0  0  0  0  0  0  0  0  0
   -9.1269    5.5152  -10.3169 N   0  0  0  0  0  0  0  0  0  0  0  0
   -7.3642    2.0297  -13.9216 N   0  0  0  0  0  0  0  0  0  0  0  0
   -8.7884    6.3474   -8.1702 O   0  0  0  0  0  0  0  0  0  0  0  0
   -7.4770    2.9946  -16.0167 O   0  0  0  0  0  0  0  0  0  0  0  0
   -9.4599    4.1819   -8.4682 O   0  0  0  0  0  0  0  0  0  0  0  0
   -9.0673    7.6534  -17.6382 H   0  0  0  0  0  0  0  0  0  0  0  0
   -8.2460    6.0616  -19.3349 H   0  0  0  0  0  0  0  0  0  0  0  0
   -9.1275    7.0377  -15.2374 H   0  0  0  0  0  0  0  0  0  0  0  0
   -7.4539    3.7863  -18.6686 H   0  0  0  0  0  0  0  0  0  0  0  0
   -7.2269    6.4497  -13.0335 H   0  0  0  0  0  0  0  0  0  0  0  0
   -7.3017    6.4861  -10.5094 H   0  0  0  0  0  0  0  0  0  0  0  0
   -8.6790    7.4017  -11.1442 H   0  0  0  0  0  0  0  0  0  0  0  0
  -10.3772    3.7104  -12.9075 H   0  0  0  0  0  0  0  0  0  0  0  0
   -9.1331    3.1150  -11.8028 H   0  0  0  0  0  0  0  0  0  0  0  0
  -10.9049    5.5524  -11.4644 H   0  0  0  0  0  0  0  0  0  0  0  0
  -10.7053    4.1793  -10.3745 H   0  0  0  0  0  0  0  0  0  0  0  0
   -7.7076    5.2814   -6.7504 H   0  0  0  0  0  0  0  0  0  0  0  0
   -9.0272    4.5013   -5.8493 H   0  0  0  0  0  0  0  0  0  0  0  0
   -7.3890    3.8129   -5.8439 H   0  0  0  0  0  0  0  0  0  0  0  0
   -9.3187    1.5367   -8.1773 H   0  0  0  0  0  0  0  0  0  0  0  0
  -10.0179    2.2806   -6.7502 H   0  0  0  0  0  0  0  0  0  0  0  0
   -8.3935    1.5644   -6.6598 H   0  0  0  0  0  0  0  0  0  0  0  0
   -7.4756    2.6769   -9.4555 H   0  0  0  0  0  0  0  0  0  0  0  0
   -6.8115    4.2286   -8.9001 H   0  0  0  0  0  0  0  0  0  0  0  0
   -6.4638    2.7217   -8.0222 H   0  0  0  0  0  0  0  0  0  0  0  0
   -7.4438    2.0410  -12.8944 H   0  0  0  0  0  0  0  0  0  0  0  0
   -6.9375    1.1829  -14.3248 H   0  0  0  0  0  0  0  0  0  0  0  0
  1  2  2  0  0  0  0
  1  3  1  0  0  0  0
  2  4  1  0  0  0  0
  3  5  2  0  0  0  0
  4  7  2  0  0  0  0
  5  6  1  0  0  0  0
  5  7  1  0  0  0  0
  6  8  2  0  0  0  0
  6 10  1  0  0  0  0
  7 22  1  0  0  0  0
  8 20  1  0  0  0  0
  8 22  1  0  0  0  0
  9 10  2  0  0  0  0
  9 12  1  0  0  0  0
 10 13  1  0  0  0  0
 11 19  1  0  0  0  0
 11 21  2  0  0  0  0
 11 23  1  0  0  0  0
 12 19  1  0  0  0  0
 13 14  1  0  0  0  0
 14 19  1  0  0  0  0
 15 18  1  0  0  0  0
 16 18  1  0  0  0  0
 17 18  1  0  0  0  0
 18 23  1  0  0  0  0
  1 24  1  0  0  0  0
  2 25  1  0  0  0  0
  3 26  1  0  0  0  0
  4 27  1  0  0  0  0
  9 28  1  0  0  0  0
 12 29  1  0  0  0  0
 12 30  1  0  0  0  0
 13 31  1  0  0  0  0
 13 32  1  0  0  0  0
 14 33  1  0  0  0  0
 14 34  1  0  0  0  0
 15 35  1  0  0  0  0
 15 36  1  0  0  0  0
 15 37  1  0  0  0  0
 16 38  1  0  0  0  0
 16 39  1  0  0  0  0
 16 40  1  0  0  0  0
 17 41  1  0  0  0  0
 17 42  1  0  0  0  0
 17 43  1  0  0  0  0
 20 44  1  0  0  0  0
 20 45  1  0  0  0  0
M  END
> <id>
EN300-359341

> <smiles>
CC(C)(C)OC(=O)N1CCC(=CC1)C2=C(N)OC=3C=CC=CC23

> <MDLNUMBER>
MFCD30538014

> <IUPAC Name>
tert-butyl 4-(2-amino-1-benzofuran-3-yl)-1,2,3,6-tetrahydropyridine-1-carboxylate

> <CAS>
2138348-05-5

> <URL>
https://www.enaminestore.com/catalog/EN300-359341

> <ROCS_ShapeQuery>
_x0404_0B

> <ROCS_TanimotoCombo>
0.431 

> <ROCS_ShapeTanimoto>
0.312 

> <ROCS_ColorTanimoto>
0.119 

> <ROCS_RefTversky>
0.285 

> <ROCS_RefColorTversky>
0.123 

> <ROCS_RefTverskyCombo>
0.409 

> <ROCS_FitTversky>
1.417 

> <ROCS_FitColorTversky>
0.781 

> <ROCS_FitTverskyCombo>
2.198 

> <ROCS_ColorScore>
-8.910

> <ROCS_Overlap>
1906.481

> <ROCS_Rank>
410                 

$$$$
untitled-dbase-4568_712
  -OEChem-08222312023D

 46 47  0     1  0  0  0  0  0999 V2000
   -7.5018    5.4730  -17.7732 C   0  0  0  0  0  0  0  0  0  0  0  0
   -8.7947    5.0869  -18.1266 C   0  0  0  0  0  0  0  0  0  0  0  0
   -9.2080    4.3883  -15.8510 C   0  0  0  0  0  0  0  0  0  0  0  0
   -7.9150    4.7744  -15.4976 C   0  0  0  0  0  0  0  0  0  0  0  0
   -7.0619    5.3167  -16.4587 C   0  0  0  0  0  0  0  0  0  0  0  0
   -9.6478    4.5446  -17.1655 C   0  0  0  0  0  0  0  0  0  0  0  0
   -8.8660    4.5769   -9.9376 C   0  0  0  0  0  0  0  0  0  0  0  0
   -7.7077    5.8513  -13.1981 C   0  0  0  0  0  0  0  0  0  0  0  0
   -8.8155    5.6664  -12.1651 C   0  0  0  0  0  0  0  0  0  0  0  0
   -7.9751    3.3220  -11.9164 C   0  0  0  0  0  0  0  0  0  0  0  0
   -7.4570    4.5920  -14.0564 C   0  0  1  0  0  0  0  0  0  0  0  0
   -8.0845    3.3244  -13.4391 C   0  0  1  0  0  0  0  0  0  0  0  0
   -5.6730    5.7364  -16.1046 C   0  0  0  0  0  0  0  0  0  0  0  0
  -10.7184    4.2371   -7.7840 C   0  0  0  0  0  0  0  0  0  0  0  0
   -9.8605    1.8795   -7.6617 C   0  0  0  0  0  0  0  0  0  0  0  0
   -8.3009    3.8016   -7.2359 C   0  0  0  0  0  0  0  0  0  0  0  0
   -9.5182    3.3227   -8.0254 C   0  0  0  0  0  0  0  0  0  0  0  0
   -8.5614    4.5139  -11.3013 N   0  0  0  0  0  0  0  0  0  0  0  0
   -8.8387    5.6067   -9.2666 O   0  0  0  0  0  0  0  0  0  0  0  0
   -7.4310    2.1631  -13.9510 O   0  0  0  0  0  0  0  0  0  0  0  0
   -9.1968    3.3513   -9.4208 O   0  0  0  0  0  0  0  0  0  0  0  0
  -10.8896    4.1744  -17.5045 F   0  0  0  0  0  0  0  0  0  0  0  0
   -6.8439    5.8934  -18.5294 H   0  0  0  0  0  0  0  0  0  0  0  0
   -9.1359    5.2075  -19.1503 H   0  0  0  0  0  0  0  0  0  0  0  0
   -9.8803    3.9640  -15.1100 H   0  0  0  0  0  0  0  0  0  0  0  0
   -7.9648    6.7069  -13.8500 H   0  0  0  0  0  0  0  0  0  0  0  0
   -6.7747    6.1431  -12.6838 H   0  0  0  0  0  0  0  0  0  0  0  0
   -8.8857    6.5510  -11.5156 H   0  0  0  0  0  0  0  0  0  0  0  0
   -9.7837    5.5642  -12.6731 H   0  0  0  0  0  0  0  0  0  0  0  0
   -8.4218    2.3974  -11.5164 H   0  0  0  0  0  0  0  0  0  0  0  0
   -6.9158    3.2832  -11.6054 H   0  0  0  0  0  0  0  0  0  0  0  0
   -6.3445    4.4198  -14.1279 H   0  0  0  0  0  0  0  0  0  0  0  0
   -9.1541    3.2523  -13.7262 H   0  0  0  0  0  0  0  0  0  0  0  0
   -5.6624    6.7857  -15.7877 H   0  0  0  0  0  0  0  0  0  0  0  0
   -5.2684    5.1215  -15.2913 H   0  0  0  0  0  0  0  0  0  0  0  0
   -4.9945    5.6222  -16.9591 H   0  0  0  0  0  0  0  0  0  0  0  0
  -10.4768    5.2739   -8.0439 H   0  0  0  0  0  0  0  0  0  0  0  0
  -11.5880    3.9249   -8.3715 H   0  0  0  0  0  0  0  0  0  0  0  0
  -10.9998    4.2415   -6.7248 H   0  0  0  0  0  0  0  0  0  0  0  0
   -9.0022    1.2199   -7.8334 H   0  0  0  0  0  0  0  0  0  0  0  0
  -10.6724    1.5000   -8.2926 H   0  0  0  0  0  0  0  0  0  0  0  0
  -10.1639    1.7880   -6.6138 H   0  0  0  0  0  0  0  0  0  0  0  0
   -7.4399    3.1458   -7.4089 H   0  0  0  0  0  0  0  0  0  0  0  0
   -8.0181    4.8229   -7.5108 H   0  0  0  0  0  0  0  0  0  0  0  0
   -8.4995    3.7733   -6.1584 H   0  0  0  0  0  0  0  0  0  0  0  0
   -7.5216    2.2005  -14.9151 H   0  0  0  0  0  0  0  0  0  0  0  0
  1  2  1  0  0  0  0
  1  5  2  0  0  0  0
  2  6  2  0  0  0  0
  3  4  2  0  0  0  0
  3  6  1  0  0  0  0
  4  5  1  0  0  0  0
  4 11  1  0  0  0  0
  5 13  1  0  0  0  0
  6 22  1  0  0  0  0
  7 18  1  0  0  0  0
  7 19  2  0  0  0  0
  7 21  1  0  0  0  0
  8  9  1  0  0  0  0
  8 11  1  0  0  0  0
  9 18  1  0  0  0  0
 10 12  1  0  0  0  0
 10 18  1  0  0  0  0
 11 12  1  0  0  0  0
 12 20  1  0  0  0  0
 14 17  1  0  0  0  0
 15 17  1  0  0  0  0
 16 17  1  0  0  0  0
 17 21  1  0  0  0  0
  1 23  1  0  0  0  0
  2 24  1  0  0  0  0
  3 25  1  0  0  0  0
  8 26  1  0  0  0  0
  8 27  1  0  0  0  0
  9 28  1  0  0  0  0
  9 29  1  0  0  0  0
 10 30  1  0  0  0  0
 10 31  1  0  0  0  0
 11 32  1  0  0  0  0
 12 33  1  0  0  0  0
 13 34  1  0  0  0  0
 13 35  1  0  0  0  0
 13 36  1  0  0  0  0
 14 37  1  0  0  0  0
 14 38  1  0  0  0  0
 14 39  1  0  0  0  0
 15 40  1  0  0  0  0
 15 41  1  0  0  0  0
 15 42  1  0  0  0  0
 16 43  1  0  0  0  0
 16 44  1  0  0  0  0
 16 45  1  0  0  0  0
 20 46  1  0  0  0  0
M  END
> <id>
EN300-94549

> <smiles>
CC=1C=CC(F)=CC1C2CCN(CC2O)C(=O)OC(C)(C)C

> <MDLNUMBER>
MFCD20502193

> <IUPAC Name>
tert-butyl 4-(5-fluoro-2-methylphenyl)-3-hydroxypiperidine-1-carboxylate

> <CAS>
1354953-20-0

> <URL>
https://www.enaminestore.com/catalog/EN300-94549

> <ROCS_ShapeQuery>
_x0404_0B

> <ROCS_TanimotoCombo>
0.431 

> <ROCS_ShapeTanimoto>
0.341 

> <ROCS_ColorTanimoto>
0.090 

> <ROCS_RefTversky>
0.302 

> <ROCS_RefColorTversky>
0.094 

> <ROCS_RefTverskyCombo>
0.396 

> <ROCS_FitTversky>
1.592 

> <ROCS_FitColorTversky>
0.713 

> <ROCS_FitTverskyCombo>
2.305 

> <ROCS_ColorScore>
-6.762

> <ROCS_Overlap>
2017.453

> <ROCS_Rank>
411                 

$$$$
untitled-dbase-155129_7
  -OEChem-08222312023D

 41 43  0     0  0  0  0  0  0999 V2000
   -8.4298    6.7586   -6.4849 C   0  0  0  0  0  0  0  0  0  0  0  0
   -8.6793    5.6590   -5.6755 C   0  0  0  0  0  0  0  0  0  0  0  0
   -8.4549    6.6285   -7.8786 C   0  0  0  0  0  0  0  0  0  0  0  0
   -8.5197    6.3033  -10.8758 C   0  0  0  0  0  0  0  0  0  0  0  0
   -8.9542    4.4282   -6.2587 C   0  0  0  0  0  0  0  0  0  0  0  0
   -8.5544    6.1316  -12.2648 C   0  0  0  0  0  0  0  0  0  0  0  0
   -9.0768    3.8092  -11.9636 C   0  0  0  0  0  0  0  0  0  0  0  0
   -8.7298    5.3977   -8.5085 C   0  0  0  0  0  0  0  0  0  0  0  0
   -8.7615    5.2374   -9.9855 C   0  0  0  0  0  0  0  0  0  0  0  0
   -8.9780    4.3039   -7.6566 C   0  0  0  0  0  0  0  0  0  0  0  0
   -9.0406    3.9876  -10.5718 C   0  0  0  0  0  0  0  0  0  0  0  0
   -8.8328    4.8851  -12.8083 C   0  0  0  0  0  0  0  0  0  0  0  0
   -9.2736    2.9796   -8.2292 C   0  0  0  0  0  0  0  0  0  0  0  0
   -9.3057    2.8182   -9.7166 C   0  0  0  0  0  0  0  0  0  0  0  0
   -8.6515    5.6618  -15.1904 C   0  0  0  0  0  0  0  0  0  0  0  0
   -6.3789    5.1253  -16.3828 C   0  0  0  0  0  0  0  0  0  0  0  0
   -7.6517    3.8600  -18.1401 C   0  0  0  0  0  0  0  0  0  0  0  0
   -7.7033    6.3710  -18.1230 C   0  0  0  0  0  0  0  0  0  0  0  0
   -7.6276    5.1101  -17.2633 C   0  0  0  0  0  0  0  0  0  0  0  0
   -8.8672    4.7145  -14.1921 N   0  0  0  0  0  0  0  0  0  0  0  0
   -9.4972    1.9928   -7.5448 O   0  0  0  0  0  0  0  0  0  0  0  0
   -9.5537    1.7086  -10.1632 O   0  0  0  0  0  0  0  0  0  0  0  0
   -8.3862    6.8481  -15.0394 O   0  0  0  0  0  0  0  0  0  0  0  0
   -8.7819    5.0655  -16.4164 O   0  0  0  0  0  0  0  0  0  0  0  0
   -8.2140    7.7245   -6.0370 H   0  0  0  0  0  0  0  0  0  0  0  0
   -8.6602    5.7599   -4.5948 H   0  0  0  0  0  0  0  0  0  0  0  0
   -8.2514    7.5289   -8.4511 H   0  0  0  0  0  0  0  0  0  0  0  0
   -8.2965    7.3046  -10.5184 H   0  0  0  0  0  0  0  0  0  0  0  0
   -9.1478    3.5761   -5.6125 H   0  0  0  0  0  0  0  0  0  0  0  0
   -8.3603    6.9860  -12.9087 H   0  0  0  0  0  0  0  0  0  0  0  0
   -9.2954    2.8337  -12.3927 H   0  0  0  0  0  0  0  0  0  0  0  0
   -6.3578    6.0211  -15.7518 H   0  0  0  0  0  0  0  0  0  0  0  0
   -6.3306    4.2432  -15.7360 H   0  0  0  0  0  0  0  0  0  0  0  0
   -5.4697    5.1563  -16.9941 H   0  0  0  0  0  0  0  0  0  0  0  0
   -8.5460    3.8450  -18.7736 H   0  0  0  0  0  0  0  0  0  0  0  0
   -7.6932    2.9532  -17.5260 H   0  0  0  0  0  0  0  0  0  0  0  0
   -6.7690    3.8018  -18.7851 H   0  0  0  0  0  0  0  0  0  0  0  0
   -8.5990    6.3604  -18.7547 H   0  0  0  0  0  0  0  0  0  0  0  0
   -7.7243    7.2772  -17.5090 H   0  0  0  0  0  0  0  0  0  0  0  0
   -6.8460    6.4310  -18.8031 H   0  0  0  0  0  0  0  0  0  0  0  0
   -9.0793    3.7656  -14.5180 H   0  0  0  0  0  0  0  0  0  0  0  0
  1  2  2  0  0  0  0
  1  3  1  0  0  0  0
  2  5  1  0  0  0  0
  3  8  2  0  0  0  0
  4  6  1  0  0  0  0
  4  9  2  0  0  0  0
  5 10  2  0  0  0  0
  6 12  2  0  0  0  0
  7 11  2  0  0  0  0
  7 12  1  0  0  0  0
  8  9  1  0  0  0  0
  8 10  1  0  0  0  0
  9 11  1  0  0  0  0
 10 13  1  0  0  0  0
 11 14  1  0  0  0  0
 12 20  1  0  0  0  0
 13 14  1  0  0  0  0
 13 21  2  0  0  0  0
 14 22  2  0  0  0  0
 15 20  1  0  0  0  0
 15 23  2  0  0  0  0
 15 24  1  0  0  0  0
 16 19  1  0  0  0  0
 17 19  1  0  0  0  0
 18 19  1  0  0  0  0
 19 24  1  0  0  0  0
  1 25  1  0  0  0  0
  2 26  1  0  0  0  0
  3 27  1  0  0  0  0
  4 28  1  0  0  0  0
  5 29  1  0  0  0  0
  6 30  1  0  0  0  0
  7 31  1  0  0  0  0
 16 32  1  0  0  0  0
 16 33  1  0  0  0  0
 16 34  1  0  0  0  0
 17 35  1  0  0  0  0
 17 36  1  0  0  0  0
 17 37  1  0  0  0  0
 18 38  1  0  0  0  0
 18 39  1  0  0  0  0
 18 40  1  0  0  0  0
 20 41  1  0  0  0  0
M  END
> <id>
EN300-28294378

> <smiles>
CC(C)(C)OC(=O)NC=1C=CC2=C(C1)C(=O)C(=O)C=3C=CC=CC32

> <IUPAC Name>
tert-butyl N-(9,10-dioxo-9,10-dihydrophenanthren-2-yl)carbamate

> <CAS>
2680780-23-6

> <URL>
https://www.enaminestore.com/catalog/EN300-28294378

> <ROCS_ShapeQuery>
_x0404_0B

> <ROCS_TanimotoCombo>
0.431 

> <ROCS_ShapeTanimoto>
0.361 

> <ROCS_ColorTanimoto>
0.070 

> <ROCS_RefTversky>
0.321 

> <ROCS_RefColorTversky>
0.075 

> <ROCS_RefTverskyCombo>
0.396 

> <ROCS_FitTversky>
1.533 

> <ROCS_FitColorTversky>
0.477 

> <ROCS_FitTverskyCombo>
2.011 

> <ROCS_ColorScore>
-5.438

> <ROCS_Overlap>
2144.388

> <ROCS_Rank>
412                 

$$$$
untitled-dbase-172962_1516
  -OEChem-08222312023D

 57 59  0     1  0  0  0  0  0999 V2000
   -9.2819    5.3557  -16.6069 B   0  0  0  0  0  0  0  0  0  0  0  0
   -8.6497    5.2861   -9.2292 C   0  0  0  0  0  0  0  0  0  0  0  0
  -10.6352    5.0399  -14.3013 C   0  0  0  0  0  0  0  0  0  0  0  0
   -9.6192    4.4091  -13.3440 C   0  0  0  0  0  0  0  0  0  0  0  0
   -7.7929    4.9350  -11.6183 C   0  0  0  0  0  0  0  0  0  0  0  0
   -9.5025    6.2277  -11.4734 C   0  0  0  0  0  0  0  0  0  0  0  0
   -9.1022    7.0367  -14.5249 C   0  0  0  0  0  0  0  0  0  0  0  0
   -9.9700    6.0214  -15.2886 C   0  0  1  0  0  0  0  0  0  0  0  0
   -8.7993    5.5025  -12.6501 C   0  0  0  0  0  0  0  0  0  0  0  0
   -9.0743    4.2730  -18.6122 C   0  0  0  0  0  0  0  0  0  0  0  0
   -7.6608    4.6739  -18.0713 C   0  0  0  0  0  0  0  0  0  0  0  0
   -9.5965    5.1463  -19.7753 C   0  0  0  0  0  0  0  0  0  0  0  0
   -9.2062    2.8021  -19.0322 C   0  0  0  0  0  0  0  0  0  0  0  0
   -6.7757    5.4182  -19.0811 C   0  0  0  0  0  0  0  0  0  0  0  0
   -6.8337    3.5066  -17.4868 C   0  0  0  0  0  0  0  0  0  0  0  0
  -10.4578    3.5139   -8.5685 C   0  0  0  0  0  0  0  0  0  0  0  0
   -8.6567    1.7640   -8.5118 C   0  0  0  0  0  0  0  0  0  0  0  0
   -8.8164    3.4548   -6.6615 C   0  0  0  0  0  0  0  0  0  0  0  0
   -9.0199    3.2037   -8.1549 C   0  0  0  0  0  0  0  0  0  0  0  0
   -8.6597    5.4575  -10.5857 N   0  0  0  0  0  0  0  0  0  0  0  0
   -9.0486    6.1233   -8.4244 O   0  0  0  0  0  0  0  0  0  0  0  0
   -9.9634    4.5018  -17.4713 O   0  0  0  0  0  0  0  0  0  0  0  0
   -7.9554    5.5866  -16.9647 O   0  0  0  0  0  0  0  0  0  0  0  0
   -8.1948    6.3651  -13.6473 O   0  0  0  0  0  0  0  0  0  0  0  0
   -8.1398    4.0646   -8.8860 O   0  0  0  0  0  0  0  0  0  0  0  0
  -11.1488    4.2432  -14.8610 H   0  0  0  0  0  0  0  0  0  0  0  0
  -11.4108    5.5490  -13.7098 H   0  0  0  0  0  0  0  0  0  0  0  0
  -10.1516    3.8135  -12.5929 H   0  0  0  0  0  0  0  0  0  0  0  0
   -8.9715    3.7214  -13.8992 H   0  0  0  0  0  0  0  0  0  0  0  0
   -7.6892    3.8466  -11.5942 H   0  0  0  0  0  0  0  0  0  0  0  0
   -6.8038    5.4037  -11.6131 H   0  0  0  0  0  0  0  0  0  0  0  0
   -9.3158    7.3030  -11.4052 H   0  0  0  0  0  0  0  0  0  0  0  0
  -10.5693    6.0262  -11.3489 H   0  0  0  0  0  0  0  0  0  0  0  0
   -8.5274    7.6732  -15.2087 H   0  0  0  0  0  0  0  0  0  0  0  0
   -9.7209    7.6983  -13.9079 H   0  0  0  0  0  0  0  0  0  0  0  0
  -10.8062    6.6039  -15.7119 H   0  0  0  0  0  0  0  0  0  0  0  0
  -10.5740    4.7875  -20.0723 H   0  0  0  0  0  0  0  0  0  0  0  0
   -8.9065    5.0730  -20.6065 H   0  0  0  0  0  0  0  0  0  0  0  0
   -9.6650    6.1735  -19.4397 H   0  0  0  0  0  0  0  0  0  0  0  0
  -10.2145    2.6182  -19.3917 H   0  0  0  0  0  0  0  0  0  0  0  0
   -9.0034    2.1631  -18.1778 H   0  0  0  0  0  0  0  0  0  0  0  0
   -8.4939    2.5873  -19.8235 H   0  0  0  0  0  0  0  0  0  0  0  0
   -5.8211    5.6538  -18.6197 H   0  0  0  0  0  0  0  0  0  0  0  0
   -7.2686    6.3371  -19.3846 H   0  0  0  0  0  0  0  0  0  0  0  0
   -6.6129    4.7889  -19.9512 H   0  0  0  0  0  0  0  0  0  0  0  0
   -5.8807    3.8890  -17.1436 H   0  0  0  0  0  0  0  0  0  0  0  0
   -6.6786    2.7647  -18.2600 H   0  0  0  0  0  0  0  0  0  0  0  0
   -7.3783    3.0708  -16.6586 H   0  0  0  0  0  0  0  0  0  0  0  0
  -10.7224    4.5464   -8.3140 H   0  0  0  0  0  0  0  0  0  0  0  0
  -10.6079    3.3713   -9.6437 H   0  0  0  0  0  0  0  0  0  0  0  0
  -11.1661    2.8721   -8.0321 H   0  0  0  0  0  0  0  0  0  0  0  0
   -7.6258    1.5371   -8.2169 H   0  0  0  0  0  0  0  0  0  0  0  0
   -8.7099    1.6051   -9.5950 H   0  0  0  0  0  0  0  0  0  0  0  0
   -9.3232    1.0461   -8.0230 H   0  0  0  0  0  0  0  0  0  0  0  0
   -7.7851    3.2324   -6.3645 H   0  0  0  0  0  0  0  0  0  0  0  0
   -9.0370    4.4931   -6.3933 H   0  0  0  0  0  0  0  0  0  0  0  0
   -9.4586    2.7971   -6.0647 H   0  0  0  0  0  0  0  0  0  0  0  0
  1  8  1  0  0  0  0
  1 22  1  0  0  0  0
  1 23  1  0  0  0  0
  2 20  1  0  0  0  0
  2 21  2  0  0  0  0
  2 25  1  0  0  0  0
  3  4  1  0  0  0  0
  3  8  1  0  0  0  0
  4  9  1  0  0  0  0
  5  9  1  0  0  0  0
  5 20  1  0  0  0  0
  6  9  1  0  0  0  0
  6 20  1  0  0  0  0
  7  8  1  0  0  0  0
  7 24  1  0  0  0  0
  9 24  1  0  0  0  0
 10 11  1  0  0  0  0
 10 12  1  0  0  0  0
 10 13  1  0  0  0  0
 10 22  1  0  0  0  0
 11 14  1  0  0  0  0
 11 15  1  0  0  0  0
 11 23  1  0  0  0  0
 16 19  1  0  0  0  0
 17 19  1  0  0  0  0
 18 19  1  0  0  0  0
 19 25  1  0  0  0  0
  3 26  1  0  0  0  0
  3 27  1  0  0  0  0
  4 28  1  0  0  0  0
  4 29  1  0  0  0  0
  5 30  1  0  0  0  0
  5 31  1  0  0  0  0
  6 32  1  0  0  0  0
  6 33  1  0  0  0  0
  7 34  1  0  0  0  0
  7 35  1  0  0  0  0
  8 36  1  0  0  0  0
 12 37  1  0  0  0  0
 12 38  1  0  0  0  0
 12 39  1  0  0  0  0
 13 40  1  0  0  0  0
 13 41  1  0  0  0  0
 13 42  1  0  0  0  0
 14 43  1  0  0  0  0
 14 44  1  0  0  0  0
 14 45  1  0  0  0  0
 15 46  1  0  0  0  0
 15 47  1  0  0  0  0
 15 48  1  0  0  0  0
 16 49  1  0  0  0  0
 16 50  1  0  0  0  0
 16 51  1  0  0  0  0
 17 52  1  0  0  0  0
 17 53  1  0  0  0  0
 17 54  1  0  0  0  0
 18 55  1  0  0  0  0
 18 56  1  0  0  0  0
 18 57  1  0  0  0  0
M  END
> <id>
EN300-22862674

> <smiles>
CC(C)(C)OC(=O)N1CC2(C1)CCC(CO2)B3OC(C)(C)C(C)(C)O3

> <IUPAC Name>
tert-butyl 7-(tetramethyl-1,3,2-dioxaborolan-2-yl)-5-oxa-2-azaspiro[3.5]nonane-2-carboxylate

> <URL>
https://www.enaminestore.com/catalog/EN300-22862674

> <ROCS_ShapeQuery>
_x0404_0B

> <ROCS_TanimotoCombo>
0.431 

> <ROCS_ShapeTanimoto>
0.375 

> <ROCS_ColorTanimoto>
0.056 

> <ROCS_RefTversky>
0.330 

> <ROCS_RefColorTversky>
0.061 

> <ROCS_RefTverskyCombo>
0.391 

> <ROCS_FitTversky>
1.577 

> <ROCS_FitColorTversky>
0.389 

> <ROCS_FitTverskyCombo>
1.967 

> <ROCS_ColorScore>
-4.434

> <ROCS_Overlap>
2201.807

> <ROCS_Rank>
413                 

$$$$
untitled-dbase-83807_6
  -OEChem-08222312023D

 50 54  0     1  0  0  0  0  0999 V2000
   -9.1489    5.1979  -18.4930 C   0  0  0  0  0  0  0  0  0  0  0  0
   -7.7590    5.1064  -18.4668 C   0  0  0  0  0  0  0  0  0  0  0  0
   -9.8820    5.3071  -17.3060 C   0  0  0  0  0  0  0  0  0  0  0  0
   -7.0581    5.1221  -17.2577 C   0  0  0  0  0  0  0  0  0  0  0  0
   -9.1990    5.3224  -16.0734 C   0  0  0  0  0  0  0  0  0  0  0  0
   -9.6010    5.4190  -14.7139 C   0  0  0  0  0  0  0  0  0  0  0  0
   -7.8021    5.2319  -16.0773 C   0  0  0  0  0  0  0  0  0  0  0  0
   -8.4625    5.3834  -13.9392 C   0  0  0  0  0  0  0  0  0  0  0  0
   -8.3256    2.4009   -8.5339 C   0  0  0  0  0  0  0  0  0  0  0  0
   -7.6803    2.8148   -9.6336 C   0  0  0  0  0  0  0  0  0  0  0  0
   -6.5918    1.9590  -10.1079 C   0  0  0  0  0  0  0  0  0  0  0  0
  -10.9466    5.5660  -14.0968 C   0  0  0  0  0  0  0  0  0  0  0  0
   -8.0017    4.0750  -11.8585 C   0  0  0  0  0  0  0  0  0  0  0  0
  -10.8914    5.2720  -12.5791 C   0  0  0  0  0  0  0  0  0  0  0  0
   -9.8050    5.8899  -10.4658 C   0  0  0  0  0  0  0  0  0  0  0  0
   -8.4230    5.4425  -12.4436 C   0  0  2  0  0  0  0  0  0  0  0  0
   -8.0331    4.1017  -10.3226 C   0  0  1  0  0  0  0  0  0  0  0  0
   -9.4515    4.5165   -9.8822 C   0  0  1  0  0  0  0  0  0  0  0  0
   -9.6024    4.4131   -8.3517 C   0  0  2  0  0  0  0  0  0  0  0  0
   -8.7637    5.3962   -7.5357 C   0  0  0  0  0  0  0  0  0  0  0  0
   -6.1460   -0.2247  -10.8776 C   0  0  0  0  0  0  0  0  0  0  0  0
   -7.3802    5.2766  -14.7648 N   0  0  0  0  0  0  0  0  0  0  0  0
   -9.7344    5.9317  -11.9340 N   0  0  1  0  0  0  0  0  0  0  0  0
   -5.4325    2.3313  -10.2091 O   0  0  0  0  0  0  0  0  0  0  0  0
   -9.3310    3.0743   -7.8861 O   0  0  0  0  0  0  0  0  0  0  0  0
   -7.0961    0.7325  -10.3982 O   0  0  0  0  0  0  0  0  0  0  0  0
   -9.6715    5.1843  -19.4458 H   0  0  0  0  0  0  0  0  0  0  0  0
   -7.2095    5.0224  -19.4010 H   0  0  0  0  0  0  0  0  0  0  0  0
  -10.9654    5.3789  -17.3425 H   0  0  0  0  0  0  0  0  0  0  0  0
   -5.9757    5.0511  -17.2395 H   0  0  0  0  0  0  0  0  0  0  0  0
   -8.1213    1.4727   -8.0164 H   0  0  0  0  0  0  0  0  0  0  0  0
  -11.3363    6.5768  -14.2594 H   0  0  0  0  0  0  0  0  0  0  0  0
  -11.6342    4.8611  -14.5800 H   0  0  0  0  0  0  0  0  0  0  0  0
   -8.6558    3.2765  -12.2435 H   0  0  0  0  0  0  0  0  0  0  0  0
   -6.9871    3.8345  -12.2058 H   0  0  0  0  0  0  0  0  0  0  0  0
  -11.8267    5.5971  -12.0990 H   0  0  0  0  0  0  0  0  0  0  0  0
  -10.8302    4.1822  -12.4517 H   0  0  0  0  0  0  0  0  0  0  0  0
  -10.8383    6.1497  -10.1415 H   0  0  0  0  0  0  0  0  0  0  0  0
   -9.1546    6.6846  -10.0313 H   0  0  0  0  0  0  0  0  0  0  0  0
   -7.6331    6.1819  -12.1894 H   0  0  0  0  0  0  0  0  0  0  0  0
   -7.3092    4.8564   -9.9921 H   0  0  0  0  0  0  0  0  0  0  0  0
  -10.1566    3.7885  -10.3063 H   0  0  0  0  0  0  0  0  0  0  0  0
  -10.6548    4.6009   -8.1032 H   0  0  0  0  0  0  0  0  0  0  0  0
   -7.7073    5.2460   -7.7509 H   0  0  0  0  0  0  0  0  0  0  0  0
   -8.9382    5.2357   -6.4734 H   0  0  0  0  0  0  0  0  0  0  0  0
   -9.0392    6.4173   -7.7931 H   0  0  0  0  0  0  0  0  0  0  0  0
   -6.6522   -1.1718  -11.0798 H   0  0  0  0  0  0  0  0  0  0  0  0
   -5.3639   -0.3701  -10.1281 H   0  0  0  0  0  0  0  0  0  0  0  0
   -5.6980    0.1507  -11.8007 H   0  0  0  0  0  0  0  0  0  0  0  0
   -6.4155    5.2359  -14.4684 H   0  0  0  0  0  0  0  0  0  0  0  0
  1  2  2  0  0  0  0
  1  3  1  0  0  0  0
  2  4  1  0  0  0  0
  3  5  2  0  0  0  0
  4  7  2  0  0  0  0
  5  6  1  0  0  0  0
  5  7  1  0  0  0  0
  6  8  2  0  0  0  0
  6 12  1  0  0  0  0
  7 22  1  0  0  0  0
  8 16  1  0  0  0  0
  8 22  1  0  0  0  0
  9 10  2  0  0  0  0
  9 25  1  0  0  0  0
 10 11  1  0  0  0  0
 10 17  1  0  0  0  0
 11 24  2  0  0  0  0
 11 26  1  0  0  0  0
 12 14  1  0  0  0  0
 13 16  1  1  0  0  0
 13 17  1  1  0  0  0
 14 23  1  0  0  0  0
 15 18  1  6  0  0  0
 15 23  1  0  0  0  0
 16 23  1  0  0  0  0
 17 18  1  0  0  0  0
 18 19  1  0  0  0  0
 19 20  1  6  0  0  0
 19 25  1  0  0  0  0
 21 26  1  0  0  0  0
  1 27  1  0  0  0  0
  2 28  1  0  0  0  0
  3 29  1  0  0  0  0
  4 30  1  0  0  0  0
  9 31  1  0  0  0  0
 12 32  1  0  0  0  0
 12 33  1  0  0  0  0
 13 34  1  0  0  0  0
 13 35  1  0  0  0  0
 14 36  1  0  0  0  0
 14 37  1  0  0  0  0
 15 38  1  0  0  0  0
 15 39  1  0  0  0  0
 16 40  1  0  0  0  0
 17 41  1  0  0  0  0
 18 42  1  0  0  0  0
 19 43  1  0  0  0  0
 20 44  1  0  0  0  0
 20 45  1  0  0  0  0
 20 46  1  0  0  0  0
 21 47  1  0  0  0  0
 21 48  1  0  0  0  0
 21 49  1  0  0  0  0
 22 50  1  0  0  0  0
M  END
> <id>
EN300-19752851

> <smiles>
Cl.COC(=O)C1=CO[C@@H](C)[C@H]2CN3CCC4=C(NC=5C=CC=CC45)[C@@H]3C[C@@H]21

> <MDLNUMBER>
MFCD00278831

> <IUPAC Name>
methyl (1S,15R,16S,20S)-16-methyl-17-oxa-3,13-diazapentacyclo[11.8.0.0^{2,10}.0^{4,9}.0^{15,20}]henicosa-2(10),4(9),5,7,18-pentaene-19-carboxylate hydrochloride

> <CAS>
4373-34-6

> <URL>
https://www.enaminestore.com/catalog/EN300-19752851

> <Saltdate>
Cl

> <ROCS_ShapeQuery>
_x0404_0B

> <ROCS_TanimotoCombo>
0.431 

> <ROCS_ShapeTanimoto>
0.359 

> <ROCS_ColorTanimoto>
0.072 

> <ROCS_RefTversky>
0.323 

> <ROCS_RefColorTversky>
0.078 

> <ROCS_RefTverskyCombo>
0.402 

> <ROCS_FitTversky>
1.446 

> <ROCS_FitColorTversky>
0.457 

> <ROCS_FitTverskyCombo>
1.902 

> <ROCS_ColorScore>
-5.649

> <ROCS_Overlap>
2162.422

> <ROCS_Rank>
414                 

$$$$
untitled-dbase-57270_6
  -OEChem-08222312023D

 50 54  0     1  0  0  0  0  0999 V2000
   -9.1489    5.1979  -18.4930 C   0  0  0  0  0  0  0  0  0  0  0  0
   -7.7590    5.1064  -18.4668 C   0  0  0  0  0  0  0  0  0  0  0  0
   -9.8820    5.3071  -17.3060 C   0  0  0  0  0  0  0  0  0  0  0  0
   -7.0581    5.1221  -17.2577 C   0  0  0  0  0  0  0  0  0  0  0  0
   -9.1990    5.3224  -16.0734 C   0  0  0  0  0  0  0  0  0  0  0  0
   -9.6010    5.4190  -14.7139 C   0  0  0  0  0  0  0  0  0  0  0  0
   -7.8021    5.2319  -16.0773 C   0  0  0  0  0  0  0  0  0  0  0  0
   -8.4625    5.3834  -13.9392 C   0  0  0  0  0  0  0  0  0  0  0  0
   -8.3256    2.4009   -8.5339 C   0  0  0  0  0  0  0  0  0  0  0  0
   -7.6803    2.8148   -9.6336 C   0  0  0  0  0  0  0  0  0  0  0  0
   -6.5918    1.9590  -10.1079 C   0  0  0  0  0  0  0  0  0  0  0  0
  -10.9466    5.5660  -14.0968 C   0  0  0  0  0  0  0  0  0  0  0  0
   -8.0017    4.0750  -11.8585 C   0  0  0  0  0  0  0  0  0  0  0  0
  -10.8914    5.2720  -12.5791 C   0  0  0  0  0  0  0  0  0  0  0  0
   -9.8050    5.8899  -10.4658 C   0  0  0  0  0  0  0  0  0  0  0  0
   -8.4230    5.4425  -12.4436 C   0  0  2  0  0  0  0  0  0  0  0  0
   -8.0331    4.1017  -10.3226 C   0  0  1  0  0  0  0  0  0  0  0  0
   -9.4515    4.5165   -9.8822 C   0  0  1  0  0  0  0  0  0  0  0  0
   -9.6024    4.4131   -8.3517 C   0  0  2  0  0  0  0  0  0  0  0  0
   -8.7637    5.3962   -7.5357 C   0  0  0  0  0  0  0  0  0  0  0  0
   -6.1460   -0.2247  -10.8776 C   0  0  0  0  0  0  0  0  0  0  0  0
   -7.3802    5.2766  -14.7648 N   0  0  0  0  0  0  0  0  0  0  0  0
   -9.7344    5.9317  -11.9340 N   0  0  1  0  0  0  0  0  0  0  0  0
   -5.4325    2.3313  -10.2091 O   0  0  0  0  0  0  0  0  0  0  0  0
   -9.3310    3.0743   -7.8861 O   0  0  0  0  0  0  0  0  0  0  0  0
   -7.0961    0.7325  -10.3982 O   0  0  0  0  0  0  0  0  0  0  0  0
   -9.6715    5.1843  -19.4458 H   0  0  0  0  0  0  0  0  0  0  0  0
   -7.2095    5.0224  -19.4010 H   0  0  0  0  0  0  0  0  0  0  0  0
  -10.9654    5.3789  -17.3425 H   0  0  0  0  0  0  0  0  0  0  0  0
   -5.9757    5.0511  -17.2395 H   0  0  0  0  0  0  0  0  0  0  0  0
   -8.1213    1.4727   -8.0164 H   0  0  0  0  0  0  0  0  0  0  0  0
  -11.3363    6.5768  -14.2594 H   0  0  0  0  0  0  0  0  0  0  0  0
  -11.6342    4.8611  -14.5800 H   0  0  0  0  0  0  0  0  0  0  0  0
   -8.6558    3.2765  -12.2435 H   0  0  0  0  0  0  0  0  0  0  0  0
   -6.9871    3.8345  -12.2058 H   0  0  0  0  0  0  0  0  0  0  0  0
  -11.8267    5.5971  -12.0990 H   0  0  0  0  0  0  0  0  0  0  0  0
  -10.8302    4.1822  -12.4517 H   0  0  0  0  0  0  0  0  0  0  0  0
  -10.8383    6.1497  -10.1415 H   0  0  0  0  0  0  0  0  0  0  0  0
   -9.1546    6.6846  -10.0313 H   0  0  0  0  0  0  0  0  0  0  0  0
   -7.6331    6.1819  -12.1894 H   0  0  0  0  0  0  0  0  0  0  0  0
   -7.3092    4.8564   -9.9921 H   0  0  0  0  0  0  0  0  0  0  0  0
  -10.1566    3.7885  -10.3063 H   0  0  0  0  0  0  0  0  0  0  0  0
  -10.6548    4.6009   -8.1032 H   0  0  0  0  0  0  0  0  0  0  0  0
   -7.7073    5.2460   -7.7509 H   0  0  0  0  0  0  0  0  0  0  0  0
   -8.9382    5.2357   -6.4734 H   0  0  0  0  0  0  0  0  0  0  0  0
   -9.0392    6.4173   -7.7931 H   0  0  0  0  0  0  0  0  0  0  0  0
   -6.6522   -1.1718  -11.0798 H   0  0  0  0  0  0  0  0  0  0  0  0
   -5.3639   -0.3701  -10.1281 H   0  0  0  0  0  0  0  0  0  0  0  0
   -5.6980    0.1507  -11.8007 H   0  0  0  0  0  0  0  0  0  0  0  0
   -6.4155    5.2359  -14.4684 H   0  0  0  0  0  0  0  0  0  0  0  0
  1  2  2  0  0  0  0
  1  3  1  0  0  0  0
  2  4  1  0  0  0  0
  3  5  2  0  0  0  0
  4  7  2  0  0  0  0
  5  6  1  0  0  0  0
  5  7  1  0  0  0  0
  6  8  2  0  0  0  0
  6 12  1  0  0  0  0
  7 22  1  0  0  0  0
  8 16  1  0  0  0  0
  8 22  1  0  0  0  0
  9 10  2  0  0  0  0
  9 25  1  0  0  0  0
 10 11  1  0  0  0  0
 10 17  1  0  0  0  0
 11 24  2  0  0  0  0
 11 26  1  0  0  0  0
 12 14  1  0  0  0  0
 13 16  1  1  0  0  0
 13 17  1  1  0  0  0
 14 23  1  0  0  0  0
 15 18  1  6  0  0  0
 15 23  1  0  0  0  0
 16 23  1  0  0  0  0
 17 18  1  0  0  0  0
 18 19  1  0  0  0  0
 19 20  1  6  0  0  0
 19 25  1  0  0  0  0
 21 26  1  0  0  0  0
  1 27  1  0  0  0  0
  2 28  1  0  0  0  0
  3 29  1  0  0  0  0
  4 30  1  0  0  0  0
  9 31  1  0  0  0  0
 12 32  1  0  0  0  0
 12 33  1  0  0  0  0
 13 34  1  0  0  0  0
 13 35  1  0  0  0  0
 14 36  1  0  0  0  0
 14 37  1  0  0  0  0
 15 38  1  0  0  0  0
 15 39  1  0  0  0  0
 16 40  1  0  0  0  0
 17 41  1  0  0  0  0
 18 42  1  0  0  0  0
 19 43  1  0  0  0  0
 20 44  1  0  0  0  0
 20 45  1  0  0  0  0
 20 46  1  0  0  0  0
 21 47  1  0  0  0  0
 21 48  1  0  0  0  0
 21 49  1  0  0  0  0
 22 50  1  0  0  0  0
M  END
> <id>
EN300-7385816

> <smiles>
COC(=O)C1=CO[C@@H](C)[C@H]2CN3CCC4=C(NC=5C=CC=CC45)[C@@H]3C[C@@H]21

> <MDLNUMBER>
MFCD00042748

> <IUPAC Name>
methyl (1S,15R,16S,20S)-16-methyl-17-oxa-3,13-diazapentacyclo[11.8.0.0^{2,10}.0^{4,9}.0^{15,20}]henicosa-2(10),4(9),5,7,18-pentaene-19-carboxylate

> <CAS>
483-04-5

> <URL>
https://www.enaminestore.com/catalog/EN300-7385816

> <MP>
248-253

> <ROCS_ShapeQuery>
_x0404_0B

> <ROCS_TanimotoCombo>
0.431 

> <ROCS_ShapeTanimoto>
0.359 

> <ROCS_ColorTanimoto>
0.072 

> <ROCS_RefTversky>
0.323 

> <ROCS_RefColorTversky>
0.078 

> <ROCS_RefTverskyCombo>
0.402 

> <ROCS_FitTversky>
1.446 

> <ROCS_FitColorTversky>
0.457 

> <ROCS_FitTverskyCombo>
1.902 

> <ROCS_ColorScore>
-5.649

> <ROCS_Overlap>
2162.422

> <ROCS_Rank>
415                 

$$$$
untitled-dbase-176570_3536
  -OEChem-08222312023D

 53 53  0     1  0  0  0  0  0999 V2000
   -9.1158    4.8660   -9.7054 C   0  0  0  0  0  0  0  0  0  0  0  0
   -8.4907    6.1929  -14.6441 C   0  0  0  0  0  0  0  0  0  0  0  0
   -9.4703    3.7582  -12.8232 C   0  0  0  0  0  0  0  0  0  0  0  0
  -10.2619    4.7355  -11.9420 C   0  0  0  0  0  0  0  0  0  0  0  0
   -8.8250    6.6999  -11.3560 C   0  0  0  0  0  0  0  0  0  0  0  0
   -7.6370    6.5142  -12.3041 C   0  0  0  0  0  0  0  0  0  0  0  0
   -8.0416    4.2129  -13.1672 C   0  0  1  0  0  0  0  0  0  0  0  0
   -9.9127    3.8201   -7.1644 C   0  0  0  0  0  0  0  0  0  0  0  0
  -10.0564    1.5999   -8.3303 C   0  0  0  0  0  0  0  0  0  0  0  0
   -7.8515    2.7933   -8.1802 C   0  0  0  0  0  0  0  0  0  0  0  0
   -7.1529    6.1126  -17.1747 C   0  0  0  0  0  0  0  0  0  0  0  0
   -8.8898    4.4208  -17.8308 C   0  0  0  0  0  0  0  0  0  0  0  0
   -9.5843    6.7600  -17.2360 C   0  0  0  0  0  0  0  0  0  0  0  0
   -7.4109    3.3427  -14.2561 C   0  0  0  0  0  0  0  0  0  0  0  0
   -9.3652    2.9615   -8.3036 C   0  0  0  0  0  0  0  0  0  0  0  0
   -8.5881    5.6358  -16.9561 C   0  0  0  0  0  0  0  0  0  0  0  0
   -9.4343    5.4285  -10.9467 N   0  0  0  0  0  0  0  0  0  0  0  0
   -7.9794    5.6592  -13.4504 N   0  0  0  0  0  0  0  0  0  0  0  0
   -8.4264    5.4180   -8.8499 O   0  0  0  0  0  0  0  0  0  0  0  0
   -8.6971    7.3876  -14.8454 O   0  0  0  0  0  0  0  0  0  0  0  0
   -7.3546    2.0103  -13.7850 O   0  0  0  0  0  0  0  0  0  0  0  0
   -9.6516    3.6151   -9.5450 O   0  0  0  0  0  0  0  0  0  0  0  0
   -8.7304    5.2299  -15.5899 O   0  0  0  0  0  0  0  0  0  0  0  0
   -9.3971    2.8005  -12.2847 H   0  0  0  0  0  0  0  0  0  0  0  0
  -10.0437    3.5321  -13.7356 H   0  0  0  0  0  0  0  0  0  0  0  0
  -10.7463    5.4833  -12.5959 H   0  0  0  0  0  0  0  0  0  0  0  0
  -11.0942    4.2269  -11.4180 H   0  0  0  0  0  0  0  0  0  0  0  0
   -8.5288    7.2413  -10.4468 H   0  0  0  0  0  0  0  0  0  0  0  0
   -9.5774    7.3229  -11.8563 H   0  0  0  0  0  0  0  0  0  0  0  0
   -7.2556    7.4759  -12.6691 H   0  0  0  0  0  0  0  0  0  0  0  0
   -6.8131    6.0543  -11.7460 H   0  0  0  0  0  0  0  0  0  0  0  0
   -7.4532    4.0580  -12.2401 H   0  0  0  0  0  0  0  0  0  0  0  0
   -9.4191    4.7983   -7.1418 H   0  0  0  0  0  0  0  0  0  0  0  0
  -10.9920    3.9773   -7.2606 H   0  0  0  0  0  0  0  0  0  0  0  0
   -9.7163    3.3522   -6.1929 H   0  0  0  0  0  0  0  0  0  0  0  0
   -9.6666    0.9805   -9.1462 H   0  0  0  0  0  0  0  0  0  0  0  0
  -11.1312    1.7113   -8.5138 H   0  0  0  0  0  0  0  0  0  0  0  0
   -9.9196    1.0588   -7.3885 H   0  0  0  0  0  0  0  0  0  0  0  0
   -7.4585    2.1775   -8.9972 H   0  0  0  0  0  0  0  0  0  0  0  0
   -7.3358    3.7590   -8.1964 H   0  0  0  0  0  0  0  0  0  0  0  0
   -7.5916    2.2753   -7.2499 H   0  0  0  0  0  0  0  0  0  0  0  0
   -6.9324    6.9846  -16.5486 H   0  0  0  0  0  0  0  0  0  0  0  0
   -6.4270    5.3261  -16.9437 H   0  0  0  0  0  0  0  0  0  0  0  0
   -7.0003    6.4305  -18.2124 H   0  0  0  0  0  0  0  0  0  0  0  0
   -9.9185    4.0753  -17.6772 H   0  0  0  0  0  0  0  0  0  0  0  0
   -8.2390    3.5791  -17.5676 H   0  0  0  0  0  0  0  0  0  0  0  0
   -8.7543    4.6446  -18.8938 H   0  0  0  0  0  0  0  0  0  0  0  0
  -10.6138    6.4183  -17.0793 H   0  0  0  0  0  0  0  0  0  0  0  0
   -9.4060    7.6267  -16.5912 H   0  0  0  0  0  0  0  0  0  0  0  0
   -9.5220    7.0847  -18.2810 H   0  0  0  0  0  0  0  0  0  0  0  0
   -6.4039    3.6954  -14.4704 H   0  0  0  0  0  0  0  0  0  0  0  0
   -8.0192    3.3842  -15.1576 H   0  0  0  0  0  0  0  0  0  0  0  0
   -8.2684    1.7325  -13.5995 H   0  0  0  0  0  0  0  0  0  0  0  0
  1 17  1  0  0  0  0
  1 19  2  0  0  0  0
  1 22  1  0  0  0  0
  2 18  1  0  0  0  0
  2 20  2  0  0  0  0
  2 23  1  0  0  0  0
  3  4  1  0  0  0  0
  3  7  1  0  0  0  0
  4 17  1  0  0  0  0
  5  6  1  0  0  0  0
  5 17  1  0  0  0  0
  6 18  1  0  0  0  0
  7 14  1  0  0  0  0
  7 18  1  0  0  0  0
  8 15  1  0  0  0  0
  9 15  1  0  0  0  0
 10 15  1  0  0  0  0
 11 16  1  0  0  0  0
 12 16  1  0  0  0  0
 13 16  1  0  0  0  0
 14 21  1  0  0  0  0
 15 22  1  0  0  0  0
 16 23  1  0  0  0  0
  3 24  1  0  0  0  0
  3 25  1  0  0  0  0
  4 26  1  0  0  0  0
  4 27  1  0  0  0  0
  5 28  1  0  0  0  0
  5 29  1  0  0  0  0
  6 30  1  0  0  0  0
  6 31  1  0  0  0  0
  7 32  1  0  0  0  0
  8 33  1  0  0  0  0
  8 34  1  0  0  0  0
  8 35  1  0  0  0  0
  9 36  1  0  0  0  0
  9 37  1  0  0  0  0
  9 38  1  0  0  0  0
 10 39  1  0  0  0  0
 10 40  1  0  0  0  0
 10 41  1  0  0  0  0
 11 42  1  0  0  0  0
 11 43  1  0  0  0  0
 11 44  1  0  0  0  0
 12 45  1  0  0  0  0
 12 46  1  0  0  0  0
 12 47  1  0  0  0  0
 13 48  1  0  0  0  0
 13 49  1  0  0  0  0
 13 50  1  0  0  0  0
 14 51  1  0  0  0  0
 14 52  1  0  0  0  0
 21 53  1  0  0  0  0
M  END
> <id>
EN300-27782977

> <smiles>
CC(C)(C)OC(=O)N1CCC(CO)N(CC1)C(=O)OC(C)(C)C

> <IUPAC Name>
1,4-di-tert-butyl 5-(hydroxymethyl)-1,4-diazepane-1,4-dicarboxylate

> <URL>
https://www.enaminestore.com/catalog/EN300-27782977

> <ROCS_ShapeQuery>
_x0404_0B

> <ROCS_TanimotoCombo>
0.431 

> <ROCS_ShapeTanimoto>
0.331 

> <ROCS_ColorTanimoto>
0.099 

> <ROCS_RefTversky>
0.297 

> <ROCS_RefColorTversky>
0.103 

> <ROCS_RefTverskyCombo>
0.401 

> <ROCS_FitTversky>
1.533 

> <ROCS_FitColorTversky>
0.715 

> <ROCS_FitTverskyCombo>
2.248 

> <ROCS_ColorScore>
-7.461

> <ROCS_Overlap>
1983.273

> <ROCS_Rank>
416                 

$$$$
untitled-dbase-174096_10
  -OEChem-08222312023D

 54 57  0     1  0  0  0  0  0999 V2000
   -8.4182    5.8067  -17.4048 C   0  0  0  0  0  0  0  0  0  0  0  0
   -7.7731    5.9692  -16.2368 C   0  0  0  0  0  0  0  0  0  0  0  0
   -8.5292    4.4683  -18.0326 C   0  0  0  0  0  0  0  0  0  0  0  0
   -8.8078    3.7802   -8.8112 C   0  0  0  0  0  0  0  0  0  0  0  0
   -7.9294    7.2605  -15.4759 C   0  0  0  0  0  0  0  0  0  0  0  0
   -8.0519    3.2784  -17.2395 C   0  0  0  0  0  0  0  0  0  0  0  0
   -8.6953    6.9822  -14.1825 C   0  0  0  0  0  0  0  0  0  0  0  0
   -6.7968    3.6631  -16.4791 C   0  0  0  0  0  0  0  0  0  0  0  0
   -9.6930    5.8940   -9.8721 C   0  0  0  0  0  0  0  0  0  0  0  0
   -9.2750    6.6362  -11.1534 C   0  0  0  0  0  0  0  0  0  0  0  0
   -8.1328    3.1662  -12.0217 C   0  0  0  0  0  0  0  0  0  0  0  0
   -9.2930    4.4187  -10.0756 C   0  0  1  0  0  0  0  0  0  0  0  0
   -8.0618    5.8488  -13.3526 C   0  0  1  0  0  0  0  0  0  0  0  0
   -8.9098    5.5160  -12.1227 C   0  0  1  0  0  0  0  0  0  0  0  0
   -7.8536    4.5407  -14.2095 C   0  0  2  0  0  0  0  0  0  0  0  0
   -7.3424    3.3555  -13.3341 C   0  0  2  0  0  0  0  0  0  0  0  0
   -7.0024    4.8581  -15.5063 C   0  0  2  0  0  0  0  0  0  0  0  0
   -8.2488    4.4600  -11.2137 C   0  0  2  0  0  0  0  0  0  0  0  0
   -8.1164    4.6786   -7.8216 C   0  0  0  0  0  0  0  0  0  0  0  0
   -5.5679    5.3258  -15.1459 C   0  0  0  0  0  0  0  0  0  0  0  0
   -6.8526    4.8674  -10.6772 C   0  0  0  0  0  0  0  0  0  0  0  0
   -9.0691    4.3464  -19.1299 O   0  0  0  0  0  0  0  0  0  0  0  0
   -8.9682    2.5807   -8.5913 O   0  0  0  0  0  0  0  0  0  0  0  0
   -7.4707    2.1295  -14.0538 O   0  0  0  0  0  0  0  0  0  0  0  0
   -8.8273    6.6384  -17.9596 H   0  0  0  0  0  0  0  0  0  0  0  0
   -6.9508    7.6641  -15.2428 H   0  0  0  0  0  0  0  0  0  0  0  0
   -8.4718    8.0045  -16.0474 H   0  0  0  0  0  0  0  0  0  0  0  0
   -8.8329    2.9990  -16.5319 H   0  0  0  0  0  0  0  0  0  0  0  0
   -7.8807    2.4480  -17.9224 H   0  0  0  0  0  0  0  0  0  0  0  0
   -8.7245    7.9118  -13.5925 H   0  0  0  0  0  0  0  0  0  0  0  0
   -9.7444    6.7357  -14.4183 H   0  0  0  0  0  0  0  0  0  0  0  0
   -6.4583    2.7863  -15.9144 H   0  0  0  0  0  0  0  0  0  0  0  0
   -6.0248    3.8929  -17.2181 H   0  0  0  0  0  0  0  0  0  0  0  0
   -9.2163    6.3482   -8.9962 H   0  0  0  0  0  0  0  0  0  0  0  0
  -10.7763    5.9690   -9.7216 H   0  0  0  0  0  0  0  0  0  0  0  0
  -10.0905    7.2604  -11.5324 H   0  0  0  0  0  0  0  0  0  0  0  0
   -8.4198    7.2920  -10.9555 H   0  0  0  0  0  0  0  0  0  0  0  0
   -9.1322    2.7770  -12.2663 H   0  0  0  0  0  0  0  0  0  0  0  0
   -7.6639    2.3749  -11.4204 H   0  0  0  0  0  0  0  0  0  0  0  0
  -10.1775    3.8521  -10.3969 H   0  0  0  0  0  0  0  0  0  0  0  0
   -7.0787    6.2128  -13.0085 H   0  0  0  0  0  0  0  0  0  0  0  0
   -9.8639    5.1097  -12.4956 H   0  0  0  0  0  0  0  0  0  0  0  0
   -8.8497    4.2510  -14.5693 H   0  0  0  0  0  0  0  0  0  0  0  0
   -6.2852    3.4876  -13.1057 H   0  0  0  0  0  0  0  0  0  0  0  0
   -8.8513    5.1003   -7.1302 H   0  0  0  0  0  0  0  0  0  0  0  0
   -7.6210    5.4954   -8.3522 H   0  0  0  0  0  0  0  0  0  0  0  0
   -7.3852    4.1009   -7.2510 H   0  0  0  0  0  0  0  0  0  0  0  0
   -5.0554    4.5212  -14.6341 H   0  0  0  0  0  0  0  0  0  0  0  0
   -5.6338    6.1931  -14.5014 H   0  0  0  0  0  0  0  0  0  0  0  0
   -5.0428    5.5798  -16.0579 H   0  0  0  0  0  0  0  0  0  0  0  0
   -6.9533    5.7821  -10.1096 H   0  0  0  0  0  0  0  0  0  0  0  0
   -6.1897    5.0195  -11.5177 H   0  0  0  0  0  0  0  0  0  0  0  0
   -6.4796    4.0736  -10.0449 H   0  0  0  0  0  0  0  0  0  0  0  0
   -7.0915    1.4386  -13.4894 H   0  0  0  0  0  0  0  0  0  0  0  0
  1  2  2  0  0  0  0
  1  3  1  0  0  0  0
  2  5  1  0  0  0  0
  2 17  1  0  0  0  0
  3  6  1  0  0  0  0
  3 22  2  0  0  0  0
  4 12  1  1  0  0  0
  4 19  1  0  0  0  0
  4 23  2  0  0  0  0
  5  7  1  0  0  0  0
  6  8  1  0  0  0  0
  7 13  1  6  0  0  0
  8 17  1  0  0  0  0
  9 10  1  0  0  0  0
  9 12  1  0  0  0  0
 10 14  1  1  0  0  0
 11 16  1  0  0  0  0
 11 18  1  0  0  0  0
 12 18  1  0  0  0  0
 13 14  1  0  0  0  0
 13 15  1  0  0  0  0
 14 18  1  0  0  0  0
 15 16  1  1  0  0  0
 15 17  1  0  0  0  0
 16 24  1  6  0  0  0
 17 20  1  1  0  0  0
 18 21  1  1  0  0  0
  1 25  1  0  0  0  0
  5 26  1  0  0  0  0
  5 27  1  0  0  0  0
  6 28  1  0  0  0  0
  6 29  1  0  0  0  0
  7 30  1  0  0  0  0
  7 31  1  0  0  0  0
  8 32  1  0  0  0  0
  8 33  1  0  0  0  0
  9 34  1  0  0  0  0
  9 35  1  0  0  0  0
 10 36  1  0  0  0  0
 10 37  1  0  0  0  0
 11 38  1  0  0  0  0
 11 39  1  0  0  0  0
 12 40  1  0  0  0  0
 13 41  1  0  0  0  0
 14 42  1  0  0  0  0
 15 43  1  0  0  0  0
 16 44  1  0  0  0  0
 19 45  1  0  0  0  0
 19 46  1  0  0  0  0
 19 47  1  0  0  0  0
 20 48  1  0  0  0  0
 20 49  1  0  0  0  0
 20 50  1  0  0  0  0
 21 51  1  0  0  0  0
 21 52  1  0  0  0  0
 21 53  1  0  0  0  0
 24 54  1  0  0  0  0
M  END
> <id>
EN300-7406630

> <smiles>
CC(=O)[C@H]1CC[C@H]2[C@@H]3CCC4=CC(=O)CC[C@]4(C)[C@H]3[C@H](O)C[C@]12C

> <MDLNUMBER>
MFCD03225413

> <IUPAC Name>
(1S,3aS,3bS,9aR,9bS,10R,11aS)-1-acetyl-10-hydroxy-9a,11a-dimethyl-1H,2H,3H,3aH,3bH,4H,5H,7H,8H,9H,9aH,9bH,10H,11H,11aH-cyclopenta[a]phenanthren-7-one

> <CAS>
80-75-1

> <Purity>
95

> <URL>
https://www.enaminestore.com/catalog/EN300-7406630

> <MP>
166-168

> <ROCS_ShapeQuery>
_x0404_0B

> <ROCS_TanimotoCombo>
0.431 

> <ROCS_ShapeTanimoto>
0.330 

> <ROCS_ColorTanimoto>
0.100 

> <ROCS_RefTversky>
0.299 

> <ROCS_RefColorTversky>
0.105 

> <ROCS_RefTverskyCombo>
0.404 

> <ROCS_FitTversky>
1.470 

> <ROCS_FitColorTversky>
0.668 

> <ROCS_FitTverskyCombo>
2.138 

> <ROCS_ColorScore>
-7.618

> <ROCS_Overlap>
1995.491

> <ROCS_Rank>
417                 

$$$$
untitled-dbase-21406_7
  -OEChem-08222312023D

 32 35  0     0  0  0  0  0  0999 V2000
   -9.2294    3.8684  -16.6286 C   0  0  0  0  0  0  0  0  0  0  0  0
   -8.7842    5.6984   -9.1632 C   0  0  0  0  0  0  0  0  0  0  0  0
   -9.2148    4.5584  -15.4180 C   0  0  0  0  0  0  0  0  0  0  0  0
   -8.4604    4.2997  -17.7133 C   0  0  0  0  0  0  0  0  0  0  0  0
   -8.9949    4.5096   -8.4604 C   0  0  0  0  0  0  0  0  0  0  0  0
   -6.7522    7.2510  -16.5230 C   0  0  0  0  0  0  0  0  0  0  0  0
   -9.0603    3.2166  -10.5343 C   0  0  0  0  0  0  0  0  0  0  0  0
   -6.2712    7.1831  -17.8102 C   0  0  0  0  0  0  0  0  0  0  0  0
   -7.6440    6.1581  -16.3357 C   0  0  0  0  0  0  0  0  0  0  0  0
   -8.7176    5.6071  -10.5372 C   0  0  0  0  0  0  0  0  0  0  0  0
   -8.4277    5.7044  -15.2561 C   0  0  0  0  0  0  0  0  0  0  0  0
   -7.6784    5.4467  -17.5369 C   0  0  0  0  0  0  0  0  0  0  0  0
   -8.8518    4.3968  -11.2150 C   0  0  0  0  0  0  0  0  0  0  0  0
   -9.1315    3.2811   -9.1388 C   0  0  0  0  0  0  0  0  0  0  0  0
   -8.5100    6.6443  -11.5397 C   0  0  0  0  0  0  0  0  0  0  0  0
   -8.5444    5.8850  -12.8129 C   0  0  0  0  0  0  0  0  0  0  0  0
   -8.3956    6.4322  -14.0201 C   0  0  0  0  0  0  0  0  0  0  0  0
   -6.8358    6.0917  -18.4139 N   0  0  0  0  0  0  0  0  0  0  0  0
   -8.3501    7.8300  -11.3608 O   0  0  0  0  0  0  0  0  0  0  0  0
   -8.7529    4.5307  -12.5808 O   0  0  0  0  0  0  0  0  0  0  0  0
   -9.3357    2.1400   -8.4211 O   0  0  0  0  0  0  0  0  0  0  0  0
   -9.8478    2.9806  -16.7320 H   0  0  0  0  0  0  0  0  0  0  0  0
   -8.6788    6.6436   -8.6444 H   0  0  0  0  0  0  0  0  0  0  0  0
   -9.8266    4.1926  -14.5959 H   0  0  0  0  0  0  0  0  0  0  0  0
   -8.4724    3.7615  -18.6554 H   0  0  0  0  0  0  0  0  0  0  0  0
   -9.0525    4.5359   -7.3748 H   0  0  0  0  0  0  0  0  0  0  0  0
   -6.4861    8.0093  -15.7992 H   0  0  0  0  0  0  0  0  0  0  0  0
   -9.1655    2.2738  -11.0595 H   0  0  0  0  0  0  0  0  0  0  0  0
   -5.5781    7.8133  -18.3493 H   0  0  0  0  0  0  0  0  0  0  0  0
   -8.2098    7.5055  -14.0693 H   0  0  0  0  0  0  0  0  0  0  0  0
   -6.6598    5.8008  -19.3657 H   0  0  0  0  0  0  0  0  0  0  0  0
   -9.3614    2.3420   -7.4730 H   0  0  0  0  0  0  0  0  0  0  0  0
  1  3  1  0  0  0  0
  1  4  2  0  0  0  0
  2  5  1  0  0  0  0
  2 10  2  0  0  0  0
  3 11  2  0  0  0  0
  4 12  1  0  0  0  0
  5 14  2  0  0  0  0
  6  8  2  0  0  0  0
  6  9  1  0  0  0  0
  7 13  2  0  0  0  0
  7 14  1  0  0  0  0
  8 18  1  0  0  0  0
  9 11  1  0  0  0  0
  9 12  2  0  0  0  0
 10 13  1  0  0  0  0
 10 15  1  0  0  0  0
 11 17  1  0  0  0  0
 12 18  1  0  0  0  0
 13 20  1  0  0  0  0
 14 21  1  0  0  0  0
 15 16  1  0  0  0  0
 15 19  2  0  0  0  0
 16 17  2  3  0  0  0
 16 20  1  0  0  0  0
  1 22  1  0  0  0  0
  2 23  1  0  0  0  0
  3 24  1  0  0  0  0
  4 25  1  0  0  0  0
  5 26  1  0  0  0  0
  6 27  1  0  0  0  0
  7 28  1  0  0  0  0
  8 29  1  0  0  0  0
 17 30  1  0  0  0  0
 18 31  1  0  0  0  0
 21 32  1  0  0  0  0
M  END
> <id>
EN300-303295

> <smiles>
OC=1C=CC=2C(=O)C(=CC=3C=CC=C4NC=CC34)OC2C1

> <IUPAC Name>
6-hydroxy-2-[(1H-indol-4-yl)methylidene]-2,3-dihydro-1-benzofuran-3-one

> <CAS>
1955564-42-7

> <Purity>
95

> <URL>
https://www.enaminestore.com/catalog/EN300-303295

> <ROCS_ShapeQuery>
_x0404_0B

> <ROCS_TanimotoCombo>
0.431 

> <ROCS_ShapeTanimoto>
0.355 

> <ROCS_ColorTanimoto>
0.075 

> <ROCS_RefTversky>
0.313 

> <ROCS_RefColorTversky>
0.082 

> <ROCS_RefTverskyCombo>
0.395 

> <ROCS_FitTversky>
1.609 

> <ROCS_FitColorTversky>
0.480 

> <ROCS_FitTverskyCombo>
2.089 

> <ROCS_ColorScore>
-5.934

> <ROCS_Overlap>
2089.917

> <ROCS_Rank>
418                 

$$$$
untitled-dbase-180722_2
  -OEChem-08222312023D

 34 37  0     0  0  0  0  0  0999 V2000
   -8.4323    6.7766  -16.8094 C   0  0  0  0  0  0  0  0  0  0  0  0
   -8.5743    4.0232  -16.3336 C   0  0  0  0  0  0  0  0  0  0  0  0
   -9.1817    2.1557   -8.0388 C   0  0  0  0  0  0  0  0  0  0  0  0
   -8.5349    6.2900  -15.5033 C   0  0  0  0  0  0  0  0  0  0  0  0
   -8.6067    4.9135  -15.2568 C   0  0  0  0  0  0  0  0  0  0  0  0
   -8.4010    5.8786  -17.8761 C   0  0  0  0  0  0  0  0  0  0  0  0
   -8.4717    4.5055  -17.6394 C   0  0  0  0  0  0  0  0  0  0  0  0
   -9.0486    4.0967   -8.8762 C   0  0  0  0  0  0  0  0  0  0  0  0
   -9.0165    3.2255   -9.9351 C   0  0  0  0  0  0  0  0  0  0  0  0
   -8.9156    3.5667  -11.2921 C   0  0  0  0  0  0  0  0  0  0  0  0
   -8.5707    7.2143  -14.3375 C   0  0  0  0  0  0  0  0  0  0  0  0
   -8.9746    5.5212   -9.1177 C   0  0  0  0  0  0  0  0  0  0  0  0
   -8.8470    4.8952  -11.5116 C   0  0  0  0  0  0  0  0  0  0  0  0
   -8.7373    5.3839  -12.9080 C   0  0  0  0  0  0  0  0  0  0  0  0
   -9.1089    0.7112  -10.0897 C   0  0  0  0  0  0  0  0  0  0  0  0
   -9.1518    3.4296   -7.6901 N   0  0  0  0  0  0  0  0  0  0  0  0
   -8.6741    6.6814  -13.0650 N   0  0  0  0  0  0  0  0  0  0  0  0
   -9.1017    1.9800   -9.4019 N   0  0  0  0  0  0  0  0  0  0  0  0
   -8.7089    4.4677  -13.9375 N   0  0  0  0  0  0  0  0  0  0  0  0
   -8.8741    5.8385  -10.4852 N   0  0  0  0  0  0  0  0  0  0  0  0
   -8.5073    8.4220  -14.5457 O   0  0  0  0  0  0  0  0  0  0  0  0
   -8.9978    6.3510   -8.2154 O   0  0  0  0  0  0  0  0  0  0  0  0
   -8.3007    6.3442  -19.1516 O   0  0  0  0  0  0  0  0  0  0  0  0
   -8.4411    3.6422  -18.6641 F   0  0  0  0  0  0  0  0  0  0  0  0
   -8.3763    7.8434  -17.0082 H   0  0  0  0  0  0  0  0  0  0  0  0
   -8.6285    2.9508  -16.1648 H   0  0  0  0  0  0  0  0  0  0  0  0
   -9.2594    1.3193   -7.3575 H   0  0  0  0  0  0  0  0  0  0  0  0
   -8.8961    2.8233  -12.0794 H   0  0  0  0  0  0  0  0  0  0  0  0
  -10.1475    0.4565  -10.3167 H   0  0  0  0  0  0  0  0  0  0  0  0
   -8.5253    0.7930  -11.0108 H   0  0  0  0  0  0  0  0  0  0  0  0
   -8.6589   -0.0507   -9.4471 H   0  0  0  0  0  0  0  0  0  0  0  0
   -8.7606    3.4699  -13.7687 H   0  0  0  0  0  0  0  0  0  0  0  0
   -8.8175    6.8200  -10.7415 H   0  0  0  0  0  0  0  0  0  0  0  0
   -8.2910    5.6043  -19.7795 H   0  0  0  0  0  0  0  0  0  0  0  0
  1  4  2  0  0  0  0
  1  6  1  0  0  0  0
  2  5  2  0  0  0  0
  2  7  1  0  0  0  0
  3 16  2  0  0  0  0
  3 18  1  0  0  0  0
  4  5  1  0  0  0  0
  4 11  1  0  0  0  0
  5 19  1  0  0  0  0
  6  7  2  0  0  0  0
  6 23  1  0  0  0  0
  7 24  1  0  0  0  0
  8  9  2  0  0  0  0
  8 12  1  0  0  0  0
  8 16  1  0  0  0  0
  9 10  1  0  0  0  0
  9 18  1  0  0  0  0
 10 13  2  0  0  0  0
 11 17  1  0  0  0  0
 11 21  2  0  0  0  0
 12 20  1  0  0  0  0
 12 22  2  0  0  0  0
 13 14  1  0  0  0  0
 13 20  1  0  0  0  0
 14 17  2  0  0  0  0
 14 19  1  0  0  0  0
 15 18  1  0  0  0  0
  1 25  1  0  0  0  0
  2 26  1  0  0  0  0
  3 27  1  0  0  0  0
 10 28  1  0  0  0  0
 15 29  1  0  0  0  0
 15 30  1  0  0  0  0
 15 31  1  0  0  0  0
 19 32  1  0  0  0  0
 20 33  1  0  0  0  0
 23 34  1  0  0  0  0
M  END
> <id>
EN300-37471518

> <smiles>
CN1C=NC=2C(=O)NC(=CC12)C3=NC(=O)C=4C=C(O)C(F)=CC4N3

> <IUPAC Name>
7-fluoro-6-hydroxy-2-{1-methyl-4-oxo-1H,4H,5H-imidazo[4,5-c]pyridin-6-yl}-1,4-dihydroquinazolin-4-one

> <Purity>
95

> <URL>
https://www.enaminestore.com/catalog/EN300-37471518

> <ROCS_ShapeQuery>
_x0404_0B

> <ROCS_TanimotoCombo>
0.431 

> <ROCS_ShapeTanimoto>
0.366 

> <ROCS_ColorTanimoto>
0.065 

> <ROCS_RefTversky>
0.326 

> <ROCS_RefColorTversky>
0.075 

> <ROCS_RefTverskyCombo>
0.401 

> <ROCS_FitTversky>
1.507 

> <ROCS_FitColorTversky>
0.318 

> <ROCS_FitTverskyCombo>
1.826 

> <ROCS_ColorScore>
-5.448

> <ROCS_Overlap>
2177.042

> <ROCS_Rank>
419                 

$$$$
untitled-dbase-19314_9
  -OEChem-08222312023D

 43 45  0     0  0  0  0  0  0999 V2000
   -9.2562    2.2341   -8.2873 C   0  0  0  0  0  0  0  0  0  0  0  0
   -9.0061    2.7928   -9.5704 C   0  0  0  0  0  0  0  0  0  0  0  0
   -9.3447    3.2741   -7.3822 C   0  0  0  0  0  0  0  0  0  0  0  0
   -8.9446    4.1550   -9.4001 C   0  0  0  0  0  0  0  0  0  0  0  0
   -8.6243    5.3329  -15.0076 C   0  0  0  0  0  0  0  0  0  0  0  0
   -9.7693    5.4119  -11.5655 C   0  0  0  0  0  0  0  0  0  0  0  0
   -7.6495    5.0278  -11.5290 C   0  0  0  0  0  0  0  0  0  0  0  0
   -9.1541    5.7865   -7.5652 C   0  0  0  0  0  0  0  0  0  0  0  0
   -9.3904    6.8057   -8.6873 C   0  0  0  0  0  0  0  0  0  0  0  0
   -8.6054    5.6996  -12.5424 C   0  0  0  0  0  0  0  0  0  0  0  0
   -8.7207    5.2694  -10.4361 C   0  0  0  0  0  0  0  0  0  0  0  0
   -7.3186    5.2298  -17.5442 C   0  0  0  0  0  0  0  0  0  0  0  0
   -8.9136    3.3653  -18.0815 C   0  0  0  0  0  0  0  0  0  0  0  0
   -9.7969    5.6657  -17.5959 C   0  0  0  0  0  0  0  0  0  0  0  0
   -8.7049    4.6458  -17.2761 C   0  0  0  0  0  0  0  0  0  0  0  0
   -9.1571    4.4304   -8.0789 N   0  0  0  0  0  0  0  0  0  0  0  0
   -8.4729    6.5936   -9.8212 N   0  0  0  0  0  0  0  0  0  0  0  0
   -8.7355    4.8563  -13.7247 N   0  0  0  0  0  0  0  0  0  0  0  0
   -8.4070    6.4962  -15.3303 O   0  0  0  0  0  0  0  0  0  0  0  0
   -8.7942    4.3023  -15.8888 O   0  0  0  0  0  0  0  0  0  0  0  0
   -9.3579    1.1849   -8.0476 H   0  0  0  0  0  0  0  0  0  0  0  0
   -8.8840    2.2545  -10.4997 H   0  0  0  0  0  0  0  0  0  0  0  0
   -9.5239    3.2772   -6.3157 H   0  0  0  0  0  0  0  0  0  0  0  0
  -10.5039    6.2187  -11.4652 H   0  0  0  0  0  0  0  0  0  0  0  0
  -10.3210    4.4915  -11.7974 H   0  0  0  0  0  0  0  0  0  0  0  0
   -7.4535    3.9687  -11.7387 H   0  0  0  0  0  0  0  0  0  0  0  0
   -6.6836    5.5264  -11.4017 H   0  0  0  0  0  0  0  0  0  0  0  0
   -8.1868    5.9639   -7.0835 H   0  0  0  0  0  0  0  0  0  0  0  0
   -9.9462    5.8396   -6.8099 H   0  0  0  0  0  0  0  0  0  0  0  0
  -10.4219    6.7165   -9.0457 H   0  0  0  0  0  0  0  0  0  0  0  0
   -9.2807    7.8279   -8.3041 H   0  0  0  0  0  0  0  0  0  0  0  0
   -8.4190    6.7039  -12.7625 H   0  0  0  0  0  0  0  0  0  0  0  0
   -7.1649    6.1491  -16.9679 H   0  0  0  0  0  0  0  0  0  0  0  0
   -6.5254    4.5207  -17.2859 H   0  0  0  0  0  0  0  0  0  0  0  0
   -7.2073    5.5042  -18.5995 H   0  0  0  0  0  0  0  0  0  0  0  0
   -9.9071    2.9428  -17.8922 H   0  0  0  0  0  0  0  0  0  0  0  0
   -8.1901    2.5965  -17.7869 H   0  0  0  0  0  0  0  0  0  0  0  0
   -8.8118    3.5432  -19.1570 H   0  0  0  0  0  0  0  0  0  0  0  0
  -10.7914    5.2471  -17.4037 H   0  0  0  0  0  0  0  0  0  0  0  0
   -9.6845    6.5772  -16.9999 H   0  0  0  0  0  0  0  0  0  0  0  0
   -9.7762    5.9389  -18.6572 H   0  0  0  0  0  0  0  0  0  0  0  0
   -8.5927    7.3674  -10.4759 H   0  0  0  0  0  0  0  0  0  0  0  0
   -8.9167    3.8711  -13.5933 H   0  0  0  0  0  0  0  0  0  0  0  0
  1  2  1  0  0  0  0
  1  3  2  0  0  0  0
  2  4  2  0  0  0  0
  3 16  1  0  0  0  0
  4 11  1  0  0  0  0
  4 16  1  0  0  0  0
  5 18  1  0  0  0  0
  5 19  2  0  0  0  0
  5 20  1  0  0  0  0
  6 10  1  0  0  0  0
  6 11  1  0  0  0  0
  7 10  1  0  0  0  0
  7 11  1  0  0  0  0
  8  9  1  0  0  0  0
  8 16  1  0  0  0  0
  9 17  1  0  0  0  0
 10 18  1  0  0  0  0
 11 17  1  0  0  0  0
 12 15  1  0  0  0  0
 13 15  1  0  0  0  0
 14 15  1  0  0  0  0
 15 20  1  0  0  0  0
  1 21  1  0  0  0  0
  2 22  1  0  0  0  0
  3 23  1  0  0  0  0
  6 24  1  0  0  0  0
  6 25  1  0  0  0  0
  7 26  1  0  0  0  0
  7 27  1  0  0  0  0
  8 28  1  0  0  0  0
  8 29  1  0  0  0  0
  9 30  1  0  0  0  0
  9 31  1  0  0  0  0
 10 32  1  0  0  0  0
 12 33  1  0  0  0  0
 12 34  1  0  0  0  0
 12 35  1  0  0  0  0
 13 36  1  0  0  0  0
 13 37  1  0  0  0  0
 13 38  1  0  0  0  0
 14 39  1  0  0  0  0
 14 40  1  0  0  0  0
 14 41  1  0  0  0  0
 17 42  1  0  0  0  0
 18 43  1  0  0  0  0
M  END
> <id>
EN300-250318

> <smiles>
CC(C)(C)OC(=O)NC1CC2(C1)NCCN3C=CC=C32

> <MDLNUMBER>
MFCD29054929

> <IUPAC Name>
tert-butyl N-{3',4'-dihydro-2'H-spiro[cyclobutane-1,1'-pyrrolo[1,2-a]pyrazine]-3-yl}carbamate

> <CAS>
1909309-49-4

> <Purity>
95

> <URL>
https://www.enaminestore.com/catalog/EN300-250318

> <ROCS_ShapeQuery>
_x0404_0B

> <ROCS_TanimotoCombo>
0.430 

> <ROCS_ShapeTanimoto>
0.343 

> <ROCS_ColorTanimoto>
0.088 

> <ROCS_RefTversky>
0.301 

> <ROCS_RefColorTversky>
0.093 

> <ROCS_RefTverskyCombo>
0.395 

> <ROCS_FitTversky>
1.665 

> <ROCS_FitColorTversky>
0.592 

> <ROCS_FitTverskyCombo>
2.257 

> <ROCS_ColorScore>
-6.743

> <ROCS_Overlap>
2010.991

> <ROCS_Rank>
420                 

$$$$
untitled-dbase-86276_550
  -OEChem-08222312023D

 42 44  0     0  0  0  0  0  0999 V2000
   -7.2741    5.1796  -16.5160 C   0  0  0  0  0  0  0  0  0  0  0  0
   -9.4874    4.2196  -16.6456 C   0  0  0  0  0  0  0  0  0  0  0  0
   -7.2515    5.3150  -17.9041 C   0  0  0  0  0  0  0  0  0  0  0  0
   -9.4649    4.3551  -18.0337 C   0  0  0  0  0  0  0  0  0  0  0  0
   -8.3920    4.6318  -15.8868 C   0  0  0  0  0  0  0  0  0  0  0  0
   -8.3469    4.9028  -18.6629 C   0  0  0  0  0  0  0  0  0  0  0  0
   -8.4164    4.4904  -14.4318 C   0  0  0  0  0  0  0  0  0  0  0  0
   -8.8511    5.3676  -13.5166 C   0  0  0  0  0  0  0  0  0  0  0  0
   -7.9603    3.2819  -13.6926 C   0  0  0  0  0  0  0  0  0  0  0  0
   -9.2626    5.5236   -8.8806 C   0  0  0  0  0  0  0  0  0  0  0  0
   -9.9453    4.8764  -11.2566 C   0  0  0  0  0  0  0  0  0  0  0  0
   -7.9693    5.7024  -11.1390 C   0  0  0  0  0  0  0  0  0  0  0  0
   -8.7024    4.8143  -12.1639 C   0  0  0  0  0  0  0  0  0  0  0  0
   -9.0928    4.6232   -6.0931 C   0  0  0  0  0  0  0  0  0  0  0  0
  -10.5766    2.7381   -6.8377 C   0  0  0  0  0  0  0  0  0  0  0  0
   -8.2712    2.9727   -7.8065 C   0  0  0  0  0  0  0  0  0  0  0  0
   -9.4870    3.7207   -7.2615 C   0  0  0  0  0  0  0  0  0  0  0  0
   -9.0849    5.4649  -10.2427 N   0  0  0  0  0  0  0  0  0  0  0  0
   -7.4930    2.2711  -14.1883 O   0  0  0  0  0  0  0  0  0  0  0  0
   -8.8190    6.4390   -8.1875 O   0  0  0  0  0  0  0  0  0  0  0  0
   -8.1410    3.4954  -12.3537 O   0  0  0  0  0  0  0  0  0  0  0  0
   -9.3965    6.6035  -13.7022 O   0  0  0  0  0  0  0  0  0  0  0  0
  -10.0276    4.5405   -8.3101 O   0  0  0  0  0  0  0  0  0  0  0  0
   -8.3188    5.0701  -20.3752 Cl  0  0  0  0  0  0  0  0  0  0  0  0
   -6.4126    5.5048  -15.9374 H   0  0  0  0  0  0  0  0  0  0  0  0
  -10.3657    3.7910  -16.1688 H   0  0  0  0  0  0  0  0  0  0  0  0
   -6.3737    5.7440  -18.3805 H   0  0  0  0  0  0  0  0  0  0  0  0
  -10.3256    4.0294  -18.6122 H   0  0  0  0  0  0  0  0  0  0  0  0
  -10.7559    5.5431  -11.5619 H   0  0  0  0  0  0  0  0  0  0  0  0
  -10.3557    3.9087  -10.9569 H   0  0  0  0  0  0  0  0  0  0  0  0
   -7.0245    5.2989  -10.7643 H   0  0  0  0  0  0  0  0  0  0  0  0
   -7.8447    6.7590  -11.3921 H   0  0  0  0  0  0  0  0  0  0  0  0
   -8.3109    5.3299   -6.3933 H   0  0  0  0  0  0  0  0  0  0  0  0
   -9.9491    5.1916   -5.7157 H   0  0  0  0  0  0  0  0  0  0  0  0
   -8.6770    4.0345   -5.2674 H   0  0  0  0  0  0  0  0  0  0  0  0
  -10.8625    2.0886   -7.6729 H   0  0  0  0  0  0  0  0  0  0  0  0
  -11.4858    3.2702   -6.5352 H   0  0  0  0  0  0  0  0  0  0  0  0
  -10.2502    2.1077   -6.0043 H   0  0  0  0  0  0  0  0  0  0  0  0
   -8.5537    2.3253   -8.6445 H   0  0  0  0  0  0  0  0  0  0  0  0
   -7.4936    3.6627   -8.1497 H   0  0  0  0  0  0  0  0  0  0  0  0
   -7.8416    2.3170   -7.0405 H   0  0  0  0  0  0  0  0  0  0  0  0
   -9.4486    6.8157  -14.6449 H   0  0  0  0  0  0  0  0  0  0  0  0
  1  3  1  0  0  0  0
  1  5  2  0  0  0  0
  2  4  2  0  0  0  0
  2  5  1  0  0  0  0
  3  6  2  0  0  0  0
  4  6  1  0  0  0  0
  5  7  1  0  0  0  0
  6 24  1  0  0  0  0
  7  8  2  0  0  0  0
  7  9  1  0  0  0  0
  8 13  1  0  0  0  0
  8 22  1  0  0  0  0
  9 19  2  0  0  0  0
  9 21  1  0  0  0  0
 10 18  1  0  0  0  0
 10 20  2  0  0  0  0
 10 23  1  0  0  0  0
 11 13  1  0  0  0  0
 11 18  1  0  0  0  0
 12 13  1  0  0  0  0
 12 18  1  0  0  0  0
 13 21  1  0  0  0  0
 14 17  1  0  0  0  0
 15 17  1  0  0  0  0
 16 17  1  0  0  0  0
 17 23  1  0  0  0  0
  1 25  1  0  0  0  0
  2 26  1  0  0  0  0
  3 27  1  0  0  0  0
  4 28  1  0  0  0  0
 11 29  1  0  0  0  0
 11 30  1  0  0  0  0
 12 31  1  0  0  0  0
 12 32  1  0  0  0  0
 14 33  1  0  0  0  0
 14 34  1  0  0  0  0
 14 35  1  0  0  0  0
 15 36  1  0  0  0  0
 15 37  1  0  0  0  0
 15 38  1  0  0  0  0
 16 39  1  0  0  0  0
 16 40  1  0  0  0  0
 16 41  1  0  0  0  0
 22 42  1  0  0  0  0
M  END
> <id>
EN300-1644833

> <smiles>
CC(C)(C)OC(=O)N1CC2(C1)OC(=O)C(=C2O)C=3C=CC(Cl)=CC3

> <IUPAC Name>
tert-butyl 7-(4-chlorophenyl)-8-hydroxy-6-oxo-5-oxa-2-azaspiro[3.4]oct-7-ene-2-carboxylate

> <CAS>
2171950-14-2

> <URL>
https://www.enaminestore.com/catalog/EN300-1644833

> <ROCS_ShapeQuery>
_x0404_0B

> <ROCS_TanimotoCombo>
0.430 

> <ROCS_ShapeTanimoto>
0.353 

> <ROCS_ColorTanimoto>
0.077 

> <ROCS_RefTversky>
0.315 

> <ROCS_RefColorTversky>
0.082 

> <ROCS_RefTverskyCombo>
0.397 

> <ROCS_FitTversky>
1.521 

> <ROCS_FitColorTversky>
0.566 

> <ROCS_FitTverskyCombo>
2.087 

> <ROCS_ColorScore>
-5.909

> <ROCS_Overlap>
2105.543

> <ROCS_Rank>
421                 

$$$$
untitled-dbase-92199_2843
  -OEChem-08222312023D

 46 48  0     1  0  0  0  0  0999 V2000
   -9.6455    4.2177  -18.1343 C   0  0  0  0  0  0  0  0  0  0  0  0
   -9.9049    4.7976  -16.8975 C   0  0  0  0  0  0  0  0  0  0  0  0
   -7.3455    4.7478  -17.8422 C   0  0  0  0  0  0  0  0  0  0  0  0
   -8.3441    4.1883  -18.6229 C   0  0  0  0  0  0  0  0  0  0  0  0
   -8.8364    5.3297  -16.1939 C   0  0  0  0  0  0  0  0  0  0  0  0
   -9.1559    5.2353   -9.0245 C   0  0  0  0  0  0  0  0  0  0  0  0
  -10.5408    5.9711  -14.3564 C   0  0  0  0  0  0  0  0  0  0  0  0
  -10.4475    6.3103  -12.8722 C   0  0  0  0  0  0  0  0  0  0  0  0
   -8.3466    5.2694  -13.6742 C   0  0  0  0  0  0  0  0  0  0  0  0
   -8.4123    6.3071  -11.2546 C   0  0  0  0  0  0  0  0  0  0  0  0
   -9.3803    4.4082  -11.4438 C   0  0  0  0  0  0  0  0  0  0  0  0
   -9.0816    5.9703  -14.8403 C   0  0  1  0  0  0  0  0  0  0  0  0
   -9.1667    5.6025  -12.4148 C   0  0  0  0  0  0  0  0  0  0  0  0
   -8.1292    4.0333   -6.9394 C   0  0  0  0  0  0  0  0  0  0  0  0
  -10.0875    2.4602   -6.9385 C   0  0  0  0  0  0  0  0  0  0  0  0
   -8.2897    2.2182   -8.6757 C   0  0  0  0  0  0  0  0  0  0  0  0
   -9.0728    3.2013   -7.8066 C   0  0  0  0  0  0  0  0  0  0  0  0
   -7.5589    5.3198  -16.6360 N   0  0  0  0  0  0  0  0  0  0  0  0
   -9.0105    5.3189  -10.3807 N   0  0  0  0  0  0  0  0  0  0  0  0
   -8.7557    6.0849   -8.2336 O   0  0  0  0  0  0  0  0  0  0  0  0
   -8.6212    7.3209  -14.9559 O   0  0  0  0  0  0  0  0  0  0  0  0
   -9.8029    4.0859   -8.6637 O   0  0  0  0  0  0  0  0  0  0  0  0
   -7.9510    3.4122  -20.2932 Br  0  0  0  0  0  0  0  0  0  0  0  0
  -10.4669    3.7935  -18.7057 H   0  0  0  0  0  0  0  0  0  0  0  0
  -10.9160    4.8264  -16.5052 H   0  0  0  0  0  0  0  0  0  0  0  0
   -6.3092    4.7573  -18.1666 H   0  0  0  0  0  0  0  0  0  0  0  0
  -10.9949    4.9792  -14.4788 H   0  0  0  0  0  0  0  0  0  0  0  0
  -11.1614    6.7018  -14.8859 H   0  0  0  0  0  0  0  0  0  0  0  0
  -10.3571    7.3964  -12.7514 H   0  0  0  0  0  0  0  0  0  0  0  0
  -11.3407    5.9889  -12.3271 H   0  0  0  0  0  0  0  0  0  0  0  0
   -8.3308    4.1834  -13.8308 H   0  0  0  0  0  0  0  0  0  0  0  0
   -7.3103    5.6150  -13.5884 H   0  0  0  0  0  0  0  0  0  0  0  0
   -7.3206    6.2347  -11.2728 H   0  0  0  0  0  0  0  0  0  0  0  0
   -8.7139    7.3351  -11.0376 H   0  0  0  0  0  0  0  0  0  0  0  0
  -10.4003    4.0233  -11.3676 H   0  0  0  0  0  0  0  0  0  0  0  0
   -8.6743    3.5767  -11.5342 H   0  0  0  0  0  0  0  0  0  0  0  0
   -7.3993    4.5667   -7.5588 H   0  0  0  0  0  0  0  0  0  0  0  0
   -8.6758    4.7662   -6.3371 H   0  0  0  0  0  0  0  0  0  0  0  0
   -7.5514    3.3920   -6.2640 H   0  0  0  0  0  0  0  0  0  0  0  0
  -10.7666    1.8620   -7.5566 H   0  0  0  0  0  0  0  0  0  0  0  0
  -10.7161    3.1663   -6.3840 H   0  0  0  0  0  0  0  0  0  0  0  0
   -9.5960    1.7957   -6.2206 H   0  0  0  0  0  0  0  0  0  0  0  0
   -8.9663    1.6213   -9.2978 H   0  0  0  0  0  0  0  0  0  0  0  0
   -7.5824    2.7352   -9.3322 H   0  0  0  0  0  0  0  0  0  0  0  0
   -7.7327    1.5073   -8.0547 H   0  0  0  0  0  0  0  0  0  0  0  0
   -7.6772    7.2773  -15.1790 H   0  0  0  0  0  0  0  0  0  0  0  0
  1  2  1  0  0  0  0
  1  4  2  0  0  0  0
  2  5  2  0  0  0  0
  3  4  1  0  0  0  0
  3 18  2  0  0  0  0
  4 23  1  0  0  0  0
  5 12  1  0  0  0  0
  5 18  1  0  0  0  0
  6 19  1  0  0  0  0
  6 20  2  0  0  0  0
  6 22  1  0  0  0  0
  7  8  1  0  0  0  0
  7 12  1  0  0  0  0
  8 13  1  0  0  0  0
  9 12  1  0  0  0  0
  9 13  1  0  0  0  0
 10 13  1  0  0  0  0
 10 19  1  0  0  0  0
 11 13  1  0  0  0  0
 11 19  1  0  0  0  0
 12 21  1  0  0  0  0
 14 17  1  0  0  0  0
 15 17  1  0  0  0  0
 16 17  1  0  0  0  0
 17 22  1  0  0  0  0
  1 24  1  0  0  0  0
  2 25  1  0  0  0  0
  3 26  1  0  0  0  0
  7 27  1  0  0  0  0
  7 28  1  0  0  0  0
  8 29  1  0  0  0  0
  8 30  1  0  0  0  0
  9 31  1  0  0  0  0
  9 32  1  0  0  0  0
 10 33  1  0  0  0  0
 10 34  1  0  0  0  0
 11 35  1  0  0  0  0
 11 36  1  0  0  0  0
 14 37  1  0  0  0  0
 14 38  1  0  0  0  0
 14 39  1  0  0  0  0
 15 40  1  0  0  0  0
 15 41  1  0  0  0  0
 15 42  1  0  0  0  0
 16 43  1  0  0  0  0
 16 44  1  0  0  0  0
 16 45  1  0  0  0  0
 21 46  1  0  0  0  0
M  END
> <id>
EN300-7429036

> <smiles>
CC(C)(C)OC(=O)N1CC2(C1)CCC(O)(C2)C=3C=CC(Br)=CN3

> <IUPAC Name>
tert-butyl 6-(5-bromopyridin-2-yl)-6-hydroxy-2-azaspiro[3.4]octane-2-carboxylate

> <CAS>
2309465-81-2

> <URL>
https://www.enaminestore.com/catalog/EN300-7429036

> <ROCS_ShapeQuery>
_x0404_0B

> <ROCS_TanimotoCombo>
0.430 

> <ROCS_ShapeTanimoto>
0.361 

> <ROCS_ColorTanimoto>
0.069 

> <ROCS_RefTversky>
0.318 

> <ROCS_RefColorTversky>
0.075 

> <ROCS_RefTverskyCombo>
0.394 

> <ROCS_FitTversky>
1.606 

> <ROCS_FitColorTversky>
0.442 

> <ROCS_FitTverskyCombo>
2.049 

> <ROCS_ColorScore>
-5.455

> <ROCS_Overlap>
2123.619

> <ROCS_Rank>
422                 

$$$$
untitled-dbase-105177_62
  -OEChem-08222312023D

 35 38  0     0  0  0  0  0  0999 V2000
   -7.5977    5.1871  -17.9774 B   0  0  0  0  0  0  0  0  0  0  0  0
   -6.9101    5.8898  -15.4146 C   0  0  0  0  0  0  0  0  0  0  0  0
   -7.4649    5.9882  -14.1341 C   0  0  0  0  0  0  0  0  0  0  0  0
   -9.6176    5.2199  -14.9556 C   0  0  0  0  0  0  0  0  0  0  0  0
   -9.2074    4.0606   -7.8664 C   0  0  0  0  0  0  0  0  0  0  0  0
   -7.7074    5.4598  -16.4502 C   0  0  0  0  0  0  0  0  0  0  0  0
   -8.8081    5.6562  -13.9060 C   0  0  0  0  0  0  0  0  0  0  0  0
   -9.0639    5.1222  -16.2280 C   0  0  0  0  0  0  0  0  0  0  0  0
   -8.9633    4.2122   -9.2438 C   0  0  0  0  0  0  0  0  0  0  0  0
   -8.9349    2.9244   -9.7223 C   0  0  0  0  0  0  0  0  0  0  0  0
   -9.3674    5.7687  -12.5504 C   0  0  0  0  0  0  0  0  0  0  0  0
   -8.7582    5.4077  -10.0965 C   0  0  0  0  0  0  0  0  0  0  0  0
   -9.7926    4.6713  -17.4557 C   0  0  0  0  0  0  0  0  0  0  0  0
   -8.7180    2.5284  -11.1304 C   0  0  0  0  0  0  0  0  0  0  0  0
   -8.1202    3.7311  -11.8839 C   0  0  0  0  0  0  0  0  0  0  0  0
   -9.3278    2.7776   -7.5030 N   0  0  0  0  0  0  0  0  0  0  0  0
   -9.1584    2.1069   -8.6594 N   0  0  0  0  0  0  0  0  0  0  0  0
   -8.7895    5.0046  -11.5290 N   0  0  0  0  0  0  0  0  0  0  0  0
  -10.3218    6.5336  -12.4170 O   0  0  0  0  0  0  0  0  0  0  0  0
   -8.8035    4.7400  -18.5142 O   0  0  0  0  0  0  0  0  0  0  0  0
   -6.4572    5.3649  -18.7029 O   0  0  0  0  0  0  0  0  0  0  0  0
   -5.8684    6.1516  -15.5740 H   0  0  0  0  0  0  0  0  0  0  0  0
   -6.8380    6.3274  -13.3124 H   0  0  0  0  0  0  0  0  0  0  0  0
  -10.6587    4.9604  -14.7881 H   0  0  0  0  0  0  0  0  0  0  0  0
   -9.3032    4.8264   -7.1101 H   0  0  0  0  0  0  0  0  0  0  0  0
   -9.5700    6.1279   -9.9475 H   0  0  0  0  0  0  0  0  0  0  0  0
   -7.8110    5.8934   -9.8480 H   0  0  0  0  0  0  0  0  0  0  0  0
  -10.1443    3.6374  -17.3641 H   0  0  0  0  0  0  0  0  0  0  0  0
  -10.6253    5.3391  -17.7033 H   0  0  0  0  0  0  0  0  0  0  0  0
   -8.0226    1.6824  -11.1708 H   0  0  0  0  0  0  0  0  0  0  0  0
   -9.6562    2.2203  -11.6037 H   0  0  0  0  0  0  0  0  0  0  0  0
   -7.0440    3.7897  -11.6918 H   0  0  0  0  0  0  0  0  0  0  0  0
   -8.2506    3.6034  -12.9660 H   0  0  0  0  0  0  0  0  0  0  0  0
   -9.2088    1.0957   -8.6420 H   0  0  0  0  0  0  0  0  0  0  0  0
   -5.7215    5.6827  -18.1501 H   0  0  0  0  0  0  0  0  0  0  0  0
  1  6  1  0  0  0  0
  1 20  1  0  0  0  0
  1 21  1  0  0  0  0
  2  3  1  0  0  0  0
  2  6  2  0  0  0  0
  3  7  2  0  0  0  0
  4  7  1  0  0  0  0
  4  8  2  0  0  0  0
  5  9  1  0  0  0  0
  5 16  2  0  0  0  0
  6  8  1  0  0  0  0
  7 11  1  0  0  0  0
  8 13  1  0  0  0  0
  9 10  2  0  0  0  0
  9 12  1  0  0  0  0
 10 14  1  0  0  0  0
 10 17  1  0  0  0  0
 11 18  1  0  0  0  0
 11 19  2  0  0  0  0
 12 18  1  0  0  0  0
 13 20  1  0  0  0  0
 14 15  1  0  0  0  0
 15 18  1  0  0  0  0
 16 17  1  0  0  0  0
  2 22  1  0  0  0  0
  3 23  1  0  0  0  0
  4 24  1  0  0  0  0
  5 25  1  0  0  0  0
 12 26  1  0  0  0  0
 12 27  1  0  0  0  0
 13 28  1  0  0  0  0
 13 29  1  0  0  0  0
 14 30  1  0  0  0  0
 14 31  1  0  0  0  0
 15 32  1  0  0  0  0
 15 33  1  0  0  0  0
 17 34  1  0  0  0  0
 21 35  1  0  0  0  0
M  END
> <id>
EN300-26618052

> <smiles>
OB1OCC=2C=C(C=CC12)C(=O)N3CCC=4NN=CC4C3

> <IUPAC Name>
5-{1H,4H,5H,6H,7H-pyrazolo[4,3-c]pyridine-5-carbonyl}-1,3-dihydro-2,1-benzoxaborol-1-ol

> <URL>
https://www.enaminestore.com/catalog/EN300-26618052

> <ROCS_ShapeQuery>
_x0404_0B

> <ROCS_TanimotoCombo>
0.430 

> <ROCS_ShapeTanimoto>
0.365 

> <ROCS_ColorTanimoto>
0.066 

> <ROCS_RefTversky>
0.318 

> <ROCS_RefColorTversky>
0.071 

> <ROCS_RefTverskyCombo>
0.389 

> <ROCS_FitTversky>
1.663 

> <ROCS_FitColorTversky>
0.487 

> <ROCS_FitTverskyCombo>
2.150 

> <ROCS_ColorScore>
-5.097

> <ROCS_Overlap>
2124.458

> <ROCS_Rank>
423                 

$$$$
untitled-dbase-84219_4
  -OEChem-08222312023D

 41 42  0     1  0  0  0  0  0999 V2000
   -8.8611    6.8464  -10.9670 C   0  0  0  0  0  0  0  0  0  0  0  0
   -8.7667    5.9849   -9.8724 C   0  0  0  0  0  0  0  0  0  0  0  0
   -8.9504    6.3303  -12.2557 C   0  0  0  0  0  0  0  0  0  0  0  0
   -8.7737    4.5916  -10.0482 C   0  0  0  0  0  0  0  0  0  0  0  0
   -8.8250    4.0789  -11.3603 C   0  0  0  0  0  0  0  0  0  0  0  0
   -8.9319    4.9518  -12.4530 C   0  0  0  0  0  0  0  0  0  0  0  0
   -8.5929    5.0720  -14.9393 C   0  0  0  0  0  0  0  0  0  0  0  0
   -8.8131    2.5915  -11.6026 C   0  0  0  0  0  0  0  0  0  0  0  0
   -8.2697    1.8172  -10.4058 C   0  0  0  0  0  0  0  0  0  0  0  0
   -8.6405    3.6465   -8.8615 C   0  0  1  0  0  0  0  0  0  0  0  0
   -6.9858    4.9379  -17.3012 C   0  0  0  0  0  0  0  0  0  0  0  0
   -8.9084    3.6791  -18.3152 C   0  0  0  0  0  0  0  0  0  0  0  0
   -9.2282    6.0520  -17.5567 C   0  0  0  0  0  0  0  0  0  0  0  0
   -9.5433    4.0284   -7.6820 C   0  0  0  0  0  0  0  0  0  0  0  0
   -8.5002    4.7352  -17.2903 C   0  0  0  0  0  0  0  0  0  0  0  0
   -8.9607    2.2451   -9.1940 N   0  0  0  0  0  0  0  0  0  0  0  0
   -9.0274    4.4710  -13.7629 N   0  0  0  0  0  0  0  0  0  0  0  0
   -8.0346    6.1560  -15.0560 O   0  0  0  0  0  0  0  0  0  0  0  0
   -8.8864    4.2540  -15.9977 O   0  0  0  0  0  0  0  0  0  0  0  0
   -9.2445    5.2655   -7.2648 F   0  0  0  0  0  0  0  0  0  0  0  0
  -10.8267    3.9905   -8.0630 F   0  0  0  0  0  0  0  0  0  0  0  0
   -9.3584    3.1673   -6.6729 F   0  0  0  0  0  0  0  0  0  0  0  0
   -8.8621    7.9213  -10.8112 H   0  0  0  0  0  0  0  0  0  0  0  0
   -8.6812    6.4209   -8.8810 H   0  0  0  0  0  0  0  0  0  0  0  0
   -9.0290    7.0125  -13.0985 H   0  0  0  0  0  0  0  0  0  0  0  0
   -9.8383    2.2668  -11.8223 H   0  0  0  0  0  0  0  0  0  0  0  0
   -8.1888    2.3478  -12.4703 H   0  0  0  0  0  0  0  0  0  0  0  0
   -8.4309    0.7444  -10.5578 H   0  0  0  0  0  0  0  0  0  0  0  0
   -7.1874    1.9627  -10.2987 H   0  0  0  0  0  0  0  0  0  0  0  0
   -7.6005    3.6857   -8.5217 H   0  0  0  0  0  0  0  0  0  0  0  0
   -6.6888    5.6952  -16.5668 H   0  0  0  0  0  0  0  0  0  0  0  0
   -6.4527    4.0082  -17.0769 H   0  0  0  0  0  0  0  0  0  0  0  0
   -6.6473    5.3042  -18.2771 H   0  0  0  0  0  0  0  0  0  0  0  0
   -9.9942    3.5304  -18.3109 H   0  0  0  0  0  0  0  0  0  0  0  0
   -8.4628    2.7075  -18.0730 H   0  0  0  0  0  0  0  0  0  0  0  0
   -8.6008    3.9588  -19.3280 H   0  0  0  0  0  0  0  0  0  0  0  0
  -10.3145    5.9068  -17.5490 H   0  0  0  0  0  0  0  0  0  0  0  0
   -8.9756    6.8108  -16.8090 H   0  0  0  0  0  0  0  0  0  0  0  0
   -8.9755    6.4431  -18.5489 H   0  0  0  0  0  0  0  0  0  0  0  0
   -9.9678    2.1446   -9.3238 H   0  0  0  0  0  0  0  0  0  0  0  0
   -9.4759    3.5569  -13.8697 H   0  0  0  0  0  0  0  0  0  0  0  0
  1  2  2  0  0  0  0
  1  3  1  0  0  0  0
  2  4  1  0  0  0  0
  3  6  2  0  0  0  0
  4  5  2  0  0  0  0
  4 10  1  0  0  0  0
  5  6  1  0  0  0  0
  5  8  1  0  0  0  0
  6 17  1  0  0  0  0
  7 17  1  0  0  0  0
  7 18  2  0  0  0  0
  7 19  1  0  0  0  0
  8  9  1  0  0  0  0
  9 16  1  0  0  0  0
 10 14  1  0  0  0  0
 10 16  1  0  0  0  0
 11 15  1  0  0  0  0
 12 15  1  0  0  0  0
 13 15  1  0  0  0  0
 14 20  1  0  0  0  0
 14 21  1  0  0  0  0
 14 22  1  0  0  0  0
 15 19  1  0  0  0  0
  1 23  1  0  0  0  0
  2 24  1  0  0  0  0
  3 25  1  0  0  0  0
  8 26  1  0  0  0  0
  8 27  1  0  0  0  0
  9 28  1  0  0  0  0
  9 29  1  0  0  0  0
 10 30  1  0  0  0  0
 11 31  1  0  0  0  0
 11 32  1  0  0  0  0
 11 33  1  0  0  0  0
 12 34  1  0  0  0  0
 12 35  1  0  0  0  0
 12 36  1  0  0  0  0
 13 37  1  0  0  0  0
 13 38  1  0  0  0  0
 13 39  1  0  0  0  0
 16 40  1  0  0  0  0
 17 41  1  0  0  0  0
M  END
> <id>
EN300-89837

> <smiles>
CC(C)(C)OC(=O)NC=1C=CC=C2C(NCCC12)C(F)(F)F

> <MDLNUMBER>
MFCD17977201

> <IUPAC Name>
tert-butyl N-[1-(trifluoromethyl)-1,2,3,4-tetrahydroisoquinolin-5-yl]carbamate

> <CAS>
1258641-05-2

> <URL>
https://www.enaminestore.com/catalog/EN300-89837

> <ROCS_ShapeQuery>
_x0404_0B

> <ROCS_TanimotoCombo>
0.430 

> <ROCS_ShapeTanimoto>
0.347 

> <ROCS_ColorTanimoto>
0.084 

> <ROCS_RefTversky>
0.307 

> <ROCS_RefColorTversky>
0.088 

> <ROCS_RefTverskyCombo>
0.396 

> <ROCS_FitTversky>
1.585 

> <ROCS_FitColorTversky>
0.611 

> <ROCS_FitTverskyCombo>
2.195 

> <ROCS_ColorScore>
-6.370

> <ROCS_Overlap>
2051.948

> <ROCS_Rank>
424                 

$$$$
untitled-dbase-138175_1
  -OEChem-08222312023D

 36 38  0     0  0  0  0  0  0999 V2000
   -8.7804    5.1280  -15.0782 C   0  0  0  0  0  0  0  0  0  0  0  0
   -8.7905    5.1683  -13.8775 C   0  0  0  0  0  0  0  0  0  0  0  0
  -10.0632    3.3203   -8.8140 C   0  0  0  0  0  0  0  0  0  0  0  0
   -7.8913    4.1905   -8.2117 C   0  0  0  0  0  0  0  0  0  0  0  0
  -10.1364    2.6558   -7.5898 C   0  0  0  0  0  0  0  0  0  0  0  0
   -7.9646    3.5261   -6.9874 C   0  0  0  0  0  0  0  0  0  0  0  0
   -7.6937    5.6083  -17.2143 C   0  0  0  0  0  0  0  0  0  0  0  0
   -9.8305    4.5045  -17.1963 C   0  0  0  0  0  0  0  0  0  0  0  0
   -7.7291    5.5372  -18.5976 C   0  0  0  0  0  0  0  0  0  0  0  0
   -8.7683    5.0798  -16.5077 C   0  0  0  0  0  0  0  0  0  0  0  0
   -8.8024    5.2158  -12.4589 C   0  0  0  0  0  0  0  0  0  0  0  0
   -8.9406    4.0876   -9.1250 C   0  0  0  0  0  0  0  0  0  0  0  0
   -9.0872    2.7587   -6.6765 C   0  0  0  0  0  0  0  0  0  0  0  0
   -8.9062    4.1671  -11.5757 C   0  0  0  0  0  0  0  0  0  0  0  0
   -9.7703    4.4830  -18.5804 C   0  0  0  0  0  0  0  0  0  0  0  0
   -8.7459    6.0958  -10.5216 C   0  0  0  0  0  0  0  0  0  0  0  0
   -9.0339    2.7123  -11.7931 C   0  0  0  0  0  0  0  0  0  0  0  0
   -8.6737    7.0512   -9.3950 C   0  0  0  0  0  0  0  0  0  0  0  0
   -8.7434    4.9862  -19.3014 N   0  0  0  0  0  0  0  0  0  0  0  0
   -8.7026    6.4136  -11.7964 N   0  0  0  0  0  0  0  0  0  0  0  0
   -8.8681    4.7464  -10.3387 N   0  0  0  0  0  0  0  0  0  0  0  0
   -9.1577    2.1207   -5.5009 F   0  0  0  0  0  0  0  0  0  0  0  0
  -11.0352    3.7939  -19.5130 Cl  0  0  0  0  0  0  0  0  0  0  0  0
  -10.8880    3.2307   -9.5168 H   0  0  0  0  0  0  0  0  0  0  0  0
   -7.0109    4.7861   -8.4409 H   0  0  0  0  0  0  0  0  0  0  0  0
  -11.0099    2.0576   -7.3477 H   0  0  0  0  0  0  0  0  0  0  0  0
   -7.1485    3.6064   -6.2756 H   0  0  0  0  0  0  0  0  0  0  0  0
   -6.8470    6.0650  -16.7119 H   0  0  0  0  0  0  0  0  0  0  0  0
  -10.6811    4.0851  -16.6670 H   0  0  0  0  0  0  0  0  0  0  0  0
   -6.9155    5.9348  -19.1952 H   0  0  0  0  0  0  0  0  0  0  0  0
   -8.0441    2.2297  -11.8400 H   0  0  0  0  0  0  0  0  0  0  0  0
   -9.6080    2.2228  -10.9882 H   0  0  0  0  0  0  0  0  0  0  0  0
   -9.5654    2.4798  -12.7317 H   0  0  0  0  0  0  0  0  0  0  0  0
   -9.6785    7.3975   -9.1065 H   0  0  0  0  0  0  0  0  0  0  0  0
   -8.2029    6.6023   -8.5051 H   0  0  0  0  0  0  0  0  0  0  0  0
   -8.0701    7.9387   -9.6470 H   0  0  0  0  0  0  0  0  0  0  0  0
  1  2  3  0  0  0  0
  1 10  1  0  0  0  0
  2 11  1  0  0  0  0
  3  5  1  0  0  0  0
  3 12  2  0  0  0  0
  4  6  2  0  0  0  0
  4 12  1  0  0  0  0
  5 13  2  0  0  0  0
  6 13  1  0  0  0  0
  7  9  1  0  0  0  0
  7 10  2  0  0  0  0
  8 10  1  0  0  0  0
  8 15  2  0  0  0  0
  9 19  2  0  0  0  0
 11 14  2  0  0  0  0
 11 20  1  0  0  0  0
 12 21  1  0  0  0  0
 13 22  1  0  0  0  0
 14 17  1  0  0  0  0
 14 21  1  0  0  0  0
 15 19  1  0  0  0  0
 15 23  1  0  0  0  0
 16 18  1  0  0  0  0
 16 20  2  0  0  0  0
 16 21  1  0  0  0  0
  3 24  1  0  0  0  0
  4 25  1  0  0  0  0
  5 26  1  0  0  0  0
  6 27  1  0  0  0  0
  7 28  1  0  0  0  0
  8 29  1  0  0  0  0
  9 30  1  0  0  0  0
 17 31  1  0  0  0  0
 17 32  1  0  0  0  0
 17 33  1  0  0  0  0
 18 34  1  0  0  0  0
 18 35  1  0  0  0  0
 18 36  1  0  0  0  0
M  END
> <id>
EN300-7405089

> <smiles>
CC1=NC(C#CC=2C=CN=C(Cl)C2)=C(C)N1C=3C=CC(F)=CC3

> <MDLNUMBER>
MFCD25976719

> <IUPAC Name>
2-chloro-4-{2-[1-(4-fluorophenyl)-2,5-dimethyl-1H-imidazol-4-yl]ethynyl}pyridine

> <CAS>
802906-73-6

> <URL>
https://www.enaminestore.com/catalog/EN300-7405089

> <ROCS_ShapeQuery>
_x0404_0B

> <ROCS_TanimotoCombo>
0.430 

> <ROCS_ShapeTanimoto>
0.370 

> <ROCS_ColorTanimoto>
0.060 

> <ROCS_RefTversky>
0.325 

> <ROCS_RefColorTversky>
0.064 

> <ROCS_RefTverskyCombo>
0.389 

> <ROCS_FitTversky>
1.610 

> <ROCS_FitColorTversky>
0.488 

> <ROCS_FitTverskyCombo>
2.098 

> <ROCS_ColorScore>
-4.629

> <ROCS_Overlap>
2167.852

> <ROCS_Rank>
425                 

$$$$
untitled-dbase-65272_157
  -OEChem-08222312023D

 57 59  0     1  0  0  0  0  0999 V2000
   -7.8555    5.4620  -15.4985 B   0  0  0  0  0  0  0  0  0  0  0  0
   -7.6823    5.2928  -13.0048 C   0  0  0  0  0  0  0  0  0  0  0  0
   -7.1767    5.7583  -14.1564 C   0  0  0  0  0  0  0  0  0  0  0  0
   -8.9936    3.6545   -9.7425 C   0  0  0  0  0  0  0  0  0  0  0  0
   -7.0195    5.5789  -11.6655 C   0  0  0  0  0  0  0  0  0  0  0  0
   -8.9946    4.5242  -12.9592 C   0  0  0  0  0  0  0  0  0  0  0  0
   -8.9661    7.0604  -10.9472 C   0  0  0  0  0  0  0  0  0  0  0  0
  -10.1460    6.4291  -11.7165 C   0  0  0  0  0  0  0  0  0  0  0  0
   -8.0630    5.8780  -10.5656 C   0  0  1  0  0  0  0  0  0  0  0  0
   -9.8471    4.9235  -11.7334 C   0  0  2  0  0  0  0  0  0  0  0  0
   -9.4589    4.8288  -17.0041 C   0  0  0  0  0  0  0  0  0  0  0  0
   -8.1573    5.2631  -17.7586 C   0  0  0  0  0  0  0  0  0  0  0  0
   -9.7024    3.3036  -16.9541 C   0  0  0  0  0  0  0  0  0  0  0  0
  -10.7460    5.4944  -17.5112 C   0  0  0  0  0  0  0  0  0  0  0  0
   -8.2319    6.6493  -18.4376 C   0  0  0  0  0  0  0  0  0  0  0  0
   -7.6543    4.2548  -18.8013 C   0  0  0  0  0  0  0  0  0  0  0  0
   -9.7152    2.2423   -7.3645 C   0  0  0  0  0  0  0  0  0  0  0  0
   -8.4862    4.0561   -6.1360 C   0  0  0  0  0  0  0  0  0  0  0  0
  -10.5073    4.6267   -7.5135 C   0  0  0  0  0  0  0  0  0  0  0  0
   -9.2913    3.7102   -7.3868 C   0  0  0  0  0  0  0  0  0  0  0  0
   -9.0052    4.7674  -10.5596 N   0  0  0  0  0  0  0  0  0  0  0  0
   -9.4255    2.5519  -10.0710 O   0  0  0  0  0  0  0  0  0  0  0  0
   -9.2294    5.2717  -15.6271 O   0  0  0  0  0  0  0  0  0  0  0  0
   -7.1530    5.3593  -16.6968 O   0  0  0  0  0  0  0  0  0  0  0  0
   -8.4409    3.9217   -8.5193 O   0  0  0  0  0  0  0  0  0  0  0  0
   -6.2688    6.3595  -14.1636 H   0  0  0  0  0  0  0  0  0  0  0  0
   -6.4282    4.7015  -11.3742 H   0  0  0  0  0  0  0  0  0  0  0  0
   -6.3261    6.4247  -11.7469 H   0  0  0  0  0  0  0  0  0  0  0  0
   -9.5755    4.6903  -13.8744 H   0  0  0  0  0  0  0  0  0  0  0  0
   -8.7688    3.4515  -12.9086 H   0  0  0  0  0  0  0  0  0  0  0  0
   -8.4484    7.8174  -11.5451 H   0  0  0  0  0  0  0  0  0  0  0  0
   -9.3478    7.5520  -10.0445 H   0  0  0  0  0  0  0  0  0  0  0  0
  -11.0767    6.6244  -11.1706 H   0  0  0  0  0  0  0  0  0  0  0  0
  -10.2527    6.8548  -12.7195 H   0  0  0  0  0  0  0  0  0  0  0  0
   -7.5763    6.0180   -9.5960 H   0  0  0  0  0  0  0  0  0  0  0  0
  -10.7507    4.3094  -11.6726 H   0  0  0  0  0  0  0  0  0  0  0  0
  -10.6213    3.1123  -16.4142 H   0  0  0  0  0  0  0  0  0  0  0  0
   -8.8699    2.8316  -16.4476 H   0  0  0  0  0  0  0  0  0  0  0  0
   -9.7821    2.9274  -17.9663 H   0  0  0  0  0  0  0  0  0  0  0  0
  -11.5912    5.1342  -16.9319 H   0  0  0  0  0  0  0  0  0  0  0  0
  -10.8922    5.2468  -18.5585 H   0  0  0  0  0  0  0  0  0  0  0  0
  -10.6631    6.5717  -17.4009 H   0  0  0  0  0  0  0  0  0  0  0  0
   -7.2876    6.8516  -18.9273 H   0  0  0  0  0  0  0  0  0  0  0  0
   -8.4260    7.4002  -17.6821 H   0  0  0  0  0  0  0  0  0  0  0  0
   -9.0329    6.6406  -19.1662 H   0  0  0  0  0  0  0  0  0  0  0  0
   -6.7532    4.6392  -19.2701 H   0  0  0  0  0  0  0  0  0  0  0  0
   -8.4201    4.1038  -19.5564 H   0  0  0  0  0  0  0  0  0  0  0  0
   -7.4345    3.3098  -18.3131 H   0  0  0  0  0  0  0  0  0  0  0  0
  -10.2933    1.9901   -8.2607 H   0  0  0  0  0  0  0  0  0  0  0  0
   -8.8502    1.5734   -7.3090 H   0  0  0  0  0  0  0  0  0  0  0  0
  -10.3673    2.0366   -6.5079 H   0  0  0  0  0  0  0  0  0  0  0  0
   -8.1799    5.1083   -6.1477 H   0  0  0  0  0  0  0  0  0  0  0  0
   -7.5634    3.4665   -6.0904 H   0  0  0  0  0  0  0  0  0  0  0  0
   -9.0605    3.8723   -5.2222 H   0  0  0  0  0  0  0  0  0  0  0  0
  -10.2035    5.6796   -7.5295 H   0  0  0  0  0  0  0  0  0  0  0  0
  -11.0768    4.4174   -8.4249 H   0  0  0  0  0  0  0  0  0  0  0  0
  -11.1744    4.5104   -6.6517 H   0  0  0  0  0  0  0  0  0  0  0  0
  1  3  1  0  0  0  0
  1 23  1  0  0  0  0
  1 24  1  0  0  0  0
  2  3  2  0  0  0  0
  2  5  1  0  0  0  0
  2  6  1  0  0  0  0
  4 21  1  0  0  0  0
  4 22  2  0  0  0  0
  4 25  1  0  0  0  0
  5  9  1  0  0  0  0
  6 10  1  0  0  0  0
  7  8  1  0  0  0  0
  7  9  1  0  0  0  0
  8 10  1  0  0  0  0
  9 21  1  0  0  0  0
 10 21  1  0  0  0  0
 11 12  1  0  0  0  0
 11 13  1  0  0  0  0
 11 14  1  0  0  0  0
 11 23  1  0  0  0  0
 12 15  1  0  0  0  0
 12 16  1  0  0  0  0
 12 24  1  0  0  0  0
 17 20  1  0  0  0  0
 18 20  1  0  0  0  0
 19 20  1  0  0  0  0
 20 25  1  0  0  0  0
  3 26  1  0  0  0  0
  5 27  1  0  0  0  0
  5 28  1  0  0  0  0
  6 29  1  0  0  0  0
  6 30  1  0  0  0  0
  7 31  1  0  0  0  0
  7 32  1  0  0  0  0
  8 33  1  0  0  0  0
  8 34  1  0  0  0  0
  9 35  1  0  0  0  0
 10 36  1  0  0  0  0
 13 37  1  0  0  0  0
 13 38  1  0  0  0  0
 13 39  1  0  0  0  0
 14 40  1  0  0  0  0
 14 41  1  0  0  0  0
 14 42  1  0  0  0  0
 15 43  1  0  0  0  0
 15 44  1  0  0  0  0
 15 45  1  0  0  0  0
 16 46  1  0  0  0  0
 16 47  1  0  0  0  0
 16 48  1  0  0  0  0
 17 49  1  0  0  0  0
 17 50  1  0  0  0  0
 17 51  1  0  0  0  0
 18 52  1  0  0  0  0
 18 53  1  0  0  0  0
 18 54  1  0  0  0  0
 19 55  1  0  0  0  0
 19 56  1  0  0  0  0
 19 57  1  0  0  0  0
M  END
> <id>
EN300-1704620

> <smiles>
CC(C)(C)OC(=O)N1C2CCC1CC(=CB3OC(C)(C)C(C)(C)O3)C2

> <MDLNUMBER>
MFCD31666865

> <IUPAC Name>
tert-butyl 3-[(tetramethyl-1,3,2-dioxaborolan-2-yl)methylidene]-8-azabicyclo[3.2.1]octane-8-carboxylate

> <CAS>
2365173-53-9

> <Purity>
95

> <URL>
https://www.enaminestore.com/catalog/EN300-1704620

> <ROCS_ShapeQuery>
_x0404_0B

> <ROCS_TanimotoCombo>
0.430 

> <ROCS_ShapeTanimoto>
0.365 

> <ROCS_ColorTanimoto>
0.066 

> <ROCS_RefTversky>
0.323 

> <ROCS_RefColorTversky>
0.074 

> <ROCS_RefTverskyCombo>
0.397 

> <ROCS_FitTversky>
1.538 

> <ROCS_FitColorTversky>
0.378 

> <ROCS_FitTverskyCombo>
1.916 

> <ROCS_ColorScore>
-5.332

> <ROCS_Overlap>
2160.048

> <ROCS_Rank>
426                 

$$$$
untitled-dbase-118096_283
  -OEChem-08222312023D

 46 48  0     1  0  0  0  0  0999 V2000
   -9.0821    3.9323   -7.7915 C   0  0  0  0  0  0  0  0  0  0  0  0
   -9.0668    5.3048   -7.5766 C   0  0  0  0  0  0  0  0  0  0  0  0
   -8.9929    3.4391   -9.0900 C   0  0  0  0  0  0  0  0  0  0  0  0
   -8.9624    6.1807   -8.6601 C   0  0  0  0  0  0  0  0  0  0  0  0
   -8.7968    3.8510  -11.4970 C   0  0  0  0  0  0  0  0  0  0  0  0
   -8.6862    6.0929  -12.2467 C   0  0  0  0  0  0  0  0  0  0  0  0
   -8.8879    4.3203  -10.1796 C   0  0  0  0  0  0  0  0  0  0  0  0
   -8.6941    4.7469  -12.5514 C   0  0  0  0  0  0  0  0  0  0  0  0
   -8.8716    5.7150   -9.9690 C   0  0  0  0  0  0  0  0  0  0  0  0
   -7.5107    5.8760  -15.5746 C   0  0  0  0  0  0  0  0  0  0  0  0
   -6.2571    2.6347  -14.6441 C   0  0  0  0  0  0  0  0  0  0  0  0
   -6.1319    4.1310  -14.3750 C   0  0  0  0  0  0  0  0  0  0  0  0
   -8.6394    2.7343  -14.2426 C   0  0  0  0  0  0  0  0  0  0  0  0
   -8.5948    4.2603  -13.9972 C   0  0  2  0  0  0  0  0  0  0  0  0
   -7.9546    6.9855  -18.1752 C   0  0  0  0  0  0  0  0  0  0  0  0
   -5.9085    5.7038  -18.8680 C   0  0  0  0  0  0  0  0  0  0  0  0
   -7.9347    4.4724  -18.0397 C   0  0  0  0  0  0  0  0  0  0  0  0
   -7.1000    5.7461  -17.9138 C   0  0  0  0  0  0  0  0  0  0  0  0
   -8.7721    6.5868  -10.9902 N   0  0  0  0  0  0  0  0  0  0  0  0
   -7.3836    2.0457  -13.9185 N   0  0  0  0  0  0  0  0  0  0  0  0
   -7.3982    4.8076  -14.6758 N   0  0  0  0  0  0  0  0  0  0  0  0
   -8.3461    6.7739  -15.4823 O   0  0  0  0  0  0  0  0  0  0  0  0
   -6.5825    5.8222  -16.5804 O   0  0  0  0  0  0  0  0  0  0  0  0
   -9.1643    3.2485   -6.9522 H   0  0  0  0  0  0  0  0  0  0  0  0
   -9.1365    5.6984   -6.5668 H   0  0  0  0  0  0  0  0  0  0  0  0
   -9.0059    2.3628   -9.2472 H   0  0  0  0  0  0  0  0  0  0  0  0
   -8.9525    7.2515   -8.4650 H   0  0  0  0  0  0  0  0  0  0  0  0
   -8.8069    2.7817  -11.6995 H   0  0  0  0  0  0  0  0  0  0  0  0
   -8.6088    6.8464  -13.0245 H   0  0  0  0  0  0  0  0  0  0  0  0
   -6.3594    2.4488  -15.7221 H   0  0  0  0  0  0  0  0  0  0  0  0
   -5.3336    2.1361  -14.3246 H   0  0  0  0  0  0  0  0  0  0  0  0
   -5.9156    4.3118  -13.3250 H   0  0  0  0  0  0  0  0  0  0  0  0
   -5.3267    4.5493  -14.9690 H   0  0  0  0  0  0  0  0  0  0  0  0
   -9.4480    2.2785  -13.6616 H   0  0  0  0  0  0  0  0  0  0  0  0
   -8.8721    2.5547  -15.2990 H   0  0  0  0  0  0  0  0  0  0  0  0
   -9.4869    4.7002  -14.5304 H   0  0  0  0  0  0  0  0  0  0  0  0
   -8.8109    7.0195  -17.4922 H   0  0  0  0  0  0  0  0  0  0  0  0
   -7.3761    7.9072  -18.0538 H   0  0  0  0  0  0  0  0  0  0  0  0
   -8.3688    6.9680  -19.1898 H   0  0  0  0  0  0  0  0  0  0  0  0
   -5.2926    4.8161  -18.6840 H   0  0  0  0  0  0  0  0  0  0  0  0
   -5.2548    6.5701  -18.7149 H   0  0  0  0  0  0  0  0  0  0  0  0
   -6.2293    5.6923  -19.9147 H   0  0  0  0  0  0  0  0  0  0  0  0
   -7.3220    3.5832  -17.8522 H   0  0  0  0  0  0  0  0  0  0  0  0
   -8.7735    4.4687  -17.3361 H   0  0  0  0  0  0  0  0  0  0  0  0
   -8.3319    4.3656  -19.0556 H   0  0  0  0  0  0  0  0  0  0  0  0
   -7.4685    1.0603  -14.1662 H   0  0  0  0  0  0  0  0  0  0  0  0
  1  2  1  0  0  0  0
  1  3  2  0  0  0  0
  2  4  2  0  0  0  0
  3  7  1  0  0  0  0
  4  9  1  0  0  0  0
  5  7  2  0  0  0  0
  5  8  1  0  0  0  0
  6  8  2  0  0  0  0
  6 19  1  0  0  0  0
  7  9  1  0  0  0  0
  8 14  1  0  0  0  0
  9 19  2  0  0  0  0
 10 21  1  0  0  0  0
 10 22  2  0  0  0  0
 10 23  1  0  0  0  0
 11 12  1  0  0  0  0
 11 20  1  0  0  0  0
 12 21  1  0  0  0  0
 13 14  1  0  0  0  0
 13 20  1  0  0  0  0
 14 21  1  0  0  0  0
 15 18  1  0  0  0  0
 16 18  1  0  0  0  0
 17 18  1  0  0  0  0
 18 23  1  0  0  0  0
  1 24  1  0  0  0  0
  2 25  1  0  0  0  0
  3 26  1  0  0  0  0
  4 27  1  0  0  0  0
  5 28  1  0  0  0  0
  6 29  1  0  0  0  0
 11 30  1  0  0  0  0
 11 31  1  0  0  0  0
 12 32  1  0  0  0  0
 12 33  1  0  0  0  0
 13 34  1  0  0  0  0
 13 35  1  0  0  0  0
 14 36  1  0  0  0  0
 15 37  1  0  0  0  0
 15 38  1  0  0  0  0
 15 39  1  0  0  0  0
 16 40  1  0  0  0  0
 16 41  1  0  0  0  0
 16 42  1  0  0  0  0
 17 43  1  0  0  0  0
 17 44  1  0  0  0  0
 17 45  1  0  0  0  0
 20 46  1  0  0  0  0
M  END
> <id>
EN300-1887833

> <smiles>
CC(C)(C)OC(=O)N1CCNCC1C=2C=NC=3C=CC=CC3C2

> <IUPAC Name>
tert-butyl 2-(quinolin-3-yl)piperazine-1-carboxylate

> <CAS>
2229412-65-9

> <URL>
https://www.enaminestore.com/catalog/EN300-1887833

> <ROCS_ShapeQuery>
_x0404_0B

> <ROCS_TanimotoCombo>
0.430 

> <ROCS_ShapeTanimoto>
0.336 

> <ROCS_ColorTanimoto>
0.094 

> <ROCS_RefTversky>
0.302 

> <ROCS_RefColorTversky>
0.099 

> <ROCS_RefTverskyCombo>
0.402 

> <ROCS_FitTversky>
1.506 

> <ROCS_FitColorTversky>
0.631 

> <ROCS_FitTverskyCombo>
2.136 

> <ROCS_ColorScore>
-7.179

> <ROCS_Overlap>
2017.487

> <ROCS_Rank>
427                 

$$$$
untitled-dbase-152344_64
  -OEChem-08222312023D

 37 38  0     0  0  0  0  0  0999 V2000
   -8.7636    6.9983  -11.1791 C   0  0  0  0  0  0  0  0  0  0  0  0
   -8.6971    6.5269  -12.4936 C   0  0  0  0  0  0  0  0  0  0  0  0
   -8.7937    4.2220  -11.7251 C   0  0  0  0  0  0  0  0  0  0  0  0
   -8.9260    6.1435   -8.7266 C   0  0  0  0  0  0  0  0  0  0  0  0
   -8.8462    6.0683  -10.1279 C   0  0  0  0  0  0  0  0  0  0  0  0
   -8.8605    4.7029  -10.4085 C   0  0  0  0  0  0  0  0  0  0  0  0
   -8.7118    5.1599  -12.7601 C   0  0  0  0  0  0  0  0  0  0  0  0
   -8.5569    5.4854  -15.2485 C   0  0  0  0  0  0  0  0  0  0  0  0
   -8.9941    2.6959   -8.9097 C   0  0  0  0  0  0  0  0  0  0  0  0
   -7.7415    0.2059   -8.3862 C   0  0  0  0  0  0  0  0  0  0  0  0
   -6.5857    0.5348  -10.5920 C   0  0  0  0  0  0  0  0  0  0  0  0
   -6.2067    2.1717   -8.7252 C   0  0  0  0  0  0  0  0  0  0  0  0
   -8.5032    4.6215  -16.4777 C   0  0  0  0  0  0  0  0  0  0  0  0
   -7.2138    1.2325   -9.3874 C   0  0  0  0  0  0  0  0  0  0  0  0
   -8.9867    4.9475   -8.1457 N   0  0  0  0  0  0  0  0  0  0  0  0
   -8.9468    4.0665   -9.1773 N   0  0  0  0  0  0  0  0  0  0  0  0
   -8.6432    4.7162  -14.0825 N   0  0  0  0  0  0  0  0  0  0  0  0
   -8.5284    6.7083  -15.3364 O   0  0  0  0  0  0  0  0  0  0  0  0
   -9.5835    2.2619   -7.9337 O   0  0  0  0  0  0  0  0  0  0  0  0
   -8.3154    2.0100   -9.8657 O   0  0  0  0  0  0  0  0  0  0  0  0
   -8.5508    3.2994  -16.1735 F   0  0  0  0  0  0  0  0  0  0  0  0
   -9.5403    4.8709  -17.3173 F   0  0  0  0  0  0  0  0  0  0  0  0
   -7.3654    4.8188  -17.1909 F   0  0  0  0  0  0  0  0  0  0  0  0
   -8.7508    8.0661  -10.9810 H   0  0  0  0  0  0  0  0  0  0  0  0
   -8.6331    7.2460  -13.3074 H   0  0  0  0  0  0  0  0  0  0  0  0
   -8.8043    3.1591  -11.9425 H   0  0  0  0  0  0  0  0  0  0  0  0
   -8.9419    7.0248   -8.1012 H   0  0  0  0  0  0  0  0  0  0  0  0
   -8.1931    0.7028   -7.5201 H   0  0  0  0  0  0  0  0  0  0  0  0
   -8.4905   -0.4515   -8.8395 H   0  0  0  0  0  0  0  0  0  0  0  0
   -6.9266   -0.4148   -7.9964 H   0  0  0  0  0  0  0  0  0  0  0  0
   -6.2058    1.2676  -11.3130 H   0  0  0  0  0  0  0  0  0  0  0  0
   -7.3299   -0.0667  -11.1264 H   0  0  0  0  0  0  0  0  0  0  0  0
   -5.7598   -0.1194  -10.2947 H   0  0  0  0  0  0  0  0  0  0  0  0
   -5.8280    2.9082   -9.4431 H   0  0  0  0  0  0  0  0  0  0  0  0
   -6.6509    2.7089   -7.8809 H   0  0  0  0  0  0  0  0  0  0  0  0
   -5.3343    1.6153   -8.3637 H   0  0  0  0  0  0  0  0  0  0  0  0
   -8.6580    3.6991  -14.2159 H   0  0  0  0  0  0  0  0  0  0  0  0
  1  2  1  0  0  0  0
  1  5  2  0  0  0  0
  2  7  2  0  0  0  0
  3  6  2  0  0  0  0
  3  7  1  0  0  0  0
  4  5  1  0  0  0  0
  4 15  2  0  0  0  0
  5  6  1  0  0  0  0
  6 16  1  0  0  0  0
  7 17  1  0  0  0  0
  8 13  1  0  0  0  0
  8 17  1  0  0  0  0
  8 18  2  0  0  0  0
  9 16  1  0  0  0  0
  9 19  2  0  0  0  0
  9 20  1  0  0  0  0
 10 14  1  0  0  0  0
 11 14  1  0  0  0  0
 12 14  1  0  0  0  0
 13 21  1  0  0  0  0
 13 22  1  0  0  0  0
 13 23  1  0  0  0  0
 14 20  1  0  0  0  0
 15 16  1  0  0  0  0
  1 24  1  0  0  0  0
  2 25  1  0  0  0  0
  3 26  1  0  0  0  0
  4 27  1  0  0  0  0
 10 28  1  0  0  0  0
 10 29  1  0  0  0  0
 10 30  1  0  0  0  0
 11 31  1  0  0  0  0
 11 32  1  0  0  0  0
 11 33  1  0  0  0  0
 12 34  1  0  0  0  0
 12 35  1  0  0  0  0
 12 36  1  0  0  0  0
 17 37  1  0  0  0  0
M  END
> <id>
EN300-28262915

> <smiles>
CC(C)(C)OC(=O)N1N=CC=2C=CC(NC(=O)C(F)(F)F)=CC12

> <IUPAC Name>
tert-butyl 6-(2,2,2-trifluoroacetamido)-1H-indazole-1-carboxylate

> <CAS>
2680850-79-5

> <URL>
https://www.enaminestore.com/catalog/EN300-28262915

> <ROCS_ShapeQuery>
_x0404_0B

> <ROCS_TanimotoCombo>
0.430 

> <ROCS_ShapeTanimoto>
0.347 

> <ROCS_ColorTanimoto>
0.083 

> <ROCS_RefTversky>
0.310 

> <ROCS_RefColorTversky>
0.088 

> <ROCS_RefTverskyCombo>
0.398 

> <ROCS_FitTversky>
1.524 

> <ROCS_FitColorTversky>
0.605 

> <ROCS_FitTverskyCombo>
2.128 

> <ROCS_ColorScore>
-6.317

> <ROCS_Overlap>
2072.414

> <ROCS_Rank>
428                 

$$$$
untitled-dbase-153413_191
  -OEChem-08222312023D

 43 44  0     0  0  0  0  0  0999 V2000
   -8.8752    5.2312  -10.4906 C   0  0  0  0  0  0  0  0  0  0  0  0
   -8.7549    5.1536  -12.6093 C   0  0  0  0  0  0  0  0  0  0  0  0
   -8.4116    5.3846  -14.8511 C   0  0  0  0  0  0  0  0  0  0  0  0
   -7.9809    4.2042   -8.3972 C   0  0  0  0  0  0  0  0  0  0  0  0
  -10.4416    4.0698   -8.9299 C   0  0  0  0  0  0  0  0  0  0  0  0
   -7.8602    2.7445   -8.8378 C   0  0  0  0  0  0  0  0  0  0  0  0
  -10.2173    2.6157   -9.3482 C   0  0  0  0  0  0  0  0  0  0  0  0
   -9.1694    4.9112   -9.0520 C   0  0  0  0  0  0  0  0  0  0  0  0
   -6.3006    6.1007  -16.6387 C   0  0  0  0  0  0  0  0  0  0  0  0
   -6.9848    4.0787  -17.9625 C   0  0  0  0  0  0  0  0  0  0  0  0
   -8.6031    5.9733  -17.6469 C   0  0  0  0  0  0  0  0  0  0  0  0
   -7.4550    7.2957  -13.0003 C   0  0  0  0  0  0  0  0  0  0  0  0
   -7.4597    5.1796  -17.0166 C   0  0  0  0  0  0  0  0  0  0  0  0
   -9.1774    4.4253  -11.4918 N   0  0  0  0  0  0  0  0  0  0  0  0
   -8.8395    4.6291  -13.7854 N   0  0  0  0  0  0  0  0  0  0  0  0
   -8.3022    6.4166  -10.8885 N   0  0  0  0  0  0  0  0  0  0  0  0
   -9.1060    2.0119   -8.6138 N   0  0  0  0  0  0  0  0  0  0  0  0
   -8.2672    6.3943  -12.2339 N   0  0  0  0  0  0  0  0  0  0  0  0
   -8.4305    6.6075  -14.9481 O   0  0  0  0  0  0  0  0  0  0  0  0
   -7.9453    4.5467  -15.8272 O   0  0  0  0  0  0  0  0  0  0  0  0
   -8.1030    4.2385   -7.3067 H   0  0  0  0  0  0  0  0  0  0  0  0
   -7.0466    4.7296   -8.6290 H   0  0  0  0  0  0  0  0  0  0  0  0
  -11.2449    4.5008   -9.5394 H   0  0  0  0  0  0  0  0  0  0  0  0
  -10.7849    4.0928   -7.8873 H   0  0  0  0  0  0  0  0  0  0  0  0
   -7.5706    2.6837   -9.8938 H   0  0  0  0  0  0  0  0  0  0  0  0
   -7.0608    2.2642   -8.2628 H   0  0  0  0  0  0  0  0  0  0  0  0
  -11.1278    2.0429   -9.1394 H   0  0  0  0  0  0  0  0  0  0  0  0
  -10.0421    2.5430  -10.4281 H   0  0  0  0  0  0  0  0  0  0  0  0
   -9.3292    5.8750   -8.5640 H   0  0  0  0  0  0  0  0  0  0  0  0
   -6.6374    6.8923  -15.9597 H   0  0  0  0  0  0  0  0  0  0  0  0
   -5.4885    5.5491  -16.1539 H   0  0  0  0  0  0  0  0  0  0  0  0
   -5.8965    6.6043  -17.5243 H   0  0  0  0  0  0  0  0  0  0  0  0
   -7.8132    3.4154  -18.2363 H   0  0  0  0  0  0  0  0  0  0  0  0
   -6.2306    3.4472  -17.4791 H   0  0  0  0  0  0  0  0  0  0  0  0
   -6.5541    4.4924  -18.8801 H   0  0  0  0  0  0  0  0  0  0  0  0
   -9.4347    5.3128  -17.9181 H   0  0  0  0  0  0  0  0  0  0  0  0
   -8.9814    6.7441  -16.9677 H   0  0  0  0  0  0  0  0  0  0  0  0
   -8.2768    6.4566  -18.5749 H   0  0  0  0  0  0  0  0  0  0  0  0
   -8.1021    7.9763  -13.5731 H   0  0  0  0  0  0  0  0  0  0  0  0
   -6.8167    7.8809  -12.3220 H   0  0  0  0  0  0  0  0  0  0  0  0
   -6.8233    6.7207  -13.6934 H   0  0  0  0  0  0  0  0  0  0  0  0
   -8.1031    7.2333  -10.3257 H   0  0  0  0  0  0  0  0  0  0  0  0
   -8.9871    1.0462   -8.9183 H   0  0  0  0  0  0  0  0  0  0  0  0
  1  8  1  0  0  0  0
  1 14  2  0  0  0  0
  1 16  1  0  0  0  0
  2 14  1  0  0  0  0
  2 15  2  3  0  0  0
  2 18  1  0  0  0  0
  3 15  1  0  0  0  0
  3 19  2  0  0  0  0
  3 20  1  0  0  0  0
  4  6  1  0  0  0  0
  4  8  1  0  0  0  0
  5  7  1  0  0  0  0
  5  8  1  0  0  0  0
  6 17  1  0  0  0  0
  7 17  1  0  0  0  0
  9 13  1  0  0  0  0
 10 13  1  0  0  0  0
 11 13  1  0  0  0  0
 12 18  1  0  0  0  0
 13 20  1  0  0  0  0
 16 18  1  0  0  0  0
  4 21  1  0  0  0  0
  4 22  1  0  0  0  0
  5 23  1  0  0  0  0
  5 24  1  0  0  0  0
  6 25  1  0  0  0  0
  6 26  1  0  0  0  0
  7 27  1  0  0  0  0
  7 28  1  0  0  0  0
  8 29  1  0  0  0  0
  9 30  1  0  0  0  0
  9 31  1  0  0  0  0
  9 32  1  0  0  0  0
 10 33  1  0  0  0  0
 10 34  1  0  0  0  0
 10 35  1  0  0  0  0
 11 36  1  0  0  0  0
 11 37  1  0  0  0  0
 11 38  1  0  0  0  0
 12 39  1  0  0  0  0
 12 40  1  0  0  0  0
 12 41  1  0  0  0  0
 16 42  1  0  0  0  0
 17 43  1  0  0  0  0
M  END
> <id>
EN300-28286309

> <smiles>
CN1NC(=NC1=NC(=O)OC(C)(C)C)C2CCNCC2

> <IUPAC Name>
tert-butyl N-[2-methyl-5-(piperidin-4-yl)-2,3-dihydro-1H-1,2,4-triazol-3-ylidene]carbamate

> <CAS>
2681255-59-2

> <URL>
https://www.enaminestore.com/catalog/EN300-28286309

> <ROCS_ShapeQuery>
_x0404_0B

> <ROCS_TanimotoCombo>
0.430 

> <ROCS_ShapeTanimoto>
0.319 

> <ROCS_ColorTanimoto>
0.111 

> <ROCS_RefTversky>
0.286 

> <ROCS_RefColorTversky>
0.117 

> <ROCS_RefTverskyCombo>
0.402 

> <ROCS_FitTversky>
1.584 

> <ROCS_FitColorTversky>
0.685 

> <ROCS_FitTverskyCombo>
2.269 

> <ROCS_ColorScore>
-8.442

> <ROCS_Overlap>
1905.240

> <ROCS_Rank>
429                 

$$$$
untitled-dbase-149508_62
  -OEChem-08222312023D

 75 79  0     1  0  0  0  0  0999 V2000
   -9.4524    4.0613  -19.5788 C   0  0  0  0  0  0  0  0  0  0  0  0
   -9.8955    4.0284  -18.2567 C   0  0  0  0  0  0  0  0  0  0  0  0
   -8.1863    4.5646  -19.8778 C   0  0  0  0  0  0  0  0  0  0  0  0
  -11.0826    6.3601  -13.4375 C   0  0  0  0  0  0  0  0  0  0  0  0
   -9.0726    4.4990  -17.2334 C   0  0  0  0  0  0  0  0  0  0  0  0
   -7.3634    5.0352  -18.8545 C   0  0  0  0  0  0  0  0  0  0  0  0
  -11.1945    6.7839  -14.7644 C   0  0  0  0  0  0  0  0  0  0  0  0
   -8.6704    6.4699  -13.6108 C   0  0  0  0  0  0  0  0  0  0  0  0
   -9.8181    6.1968  -12.8609 C   0  0  0  0  0  0  0  0  0  0  0  0
   -7.8065    5.0024  -17.5323 C   0  0  0  0  0  0  0  0  0  0  0  0
   -8.7980    6.8496  -14.9491 C   0  0  0  0  0  0  0  0  0  0  0  0
  -10.0531    7.0335  -15.5258 C   0  0  0  0  0  0  0  0  0  0  0  0
   -5.9252    3.2864  -15.9563 C   0  0  0  0  0  0  0  0  0  0  0  0
   -6.3353    2.0203  -15.7736 C   0  0  0  0  0  0  0  0  0  0  0  0
   -9.6567    5.7877  -11.4452 C   0  0  0  0  0  0  0  0  0  0  0  0
   -8.4514    2.4002  -10.8222 C   0  0  0  0  0  0  0  0  0  0  0  0
   -6.5651    4.5179  -15.3881 C   0  0  0  0  0  0  0  0  0  0  0  0
   -7.5115    1.5406  -14.9706 C   0  0  0  0  0  0  0  0  0  0  0  0
   -6.1411    1.2998  -10.3257 C   0  0  0  0  0  0  0  0  0  0  0  0
   -6.3008    3.5688  -11.4920 C   0  0  0  0  0  0  0  0  0  0  0  0
  -10.1089    3.0144   -7.6547 C   0  0  0  0  0  0  0  0  0  0  0  0
   -4.8872    1.9996   -9.7933 C   0  0  0  0  0  0  0  0  0  0  0  0
   -4.7933    3.4711  -11.7456 C   0  0  0  0  0  0  0  0  0  0  0  0
  -10.7029    4.5633   -9.5556 C   0  0  0  0  0  0  0  0  0  0  0  0
   -7.8542    3.2349   -8.4490 C   0  0  0  0  0  0  0  0  0  0  0  0
   -6.9840    1.4158  -12.6559 C   0  0  0  0  0  0  0  0  0  0  0  0
  -10.1476    3.1775   -9.1781 C   0  0  1  0  0  0  0  0  0  0  0  0
   -8.7549    3.5927   -7.2758 C   0  0  1  0  0  0  0  0  0  0  0  0
   -6.9708    2.1906  -11.2907 C   0  0  0  0  0  0  0  0  0  0  0  0
  -10.6053    4.8985  -10.9628 N   0  0  0  0  0  0  0  0  0  0  0  0
   -4.0837    2.5171  -10.8942 N   0  0  0  0  0  0  0  0  0  0  0  0
   -6.9482    5.4930  -16.4651 N   0  0  2  0  0  0  0  0  0  0  0  0
   -8.7478    2.9650   -9.5811 N   0  0  0  0  0  0  0  0  0  0  0  0
   -8.7219    6.2472  -10.7946 O   0  0  0  0  0  0  0  0  0  0  0  0
   -9.3685    2.0859  -11.5959 O   0  0  0  0  0  0  0  0  0  0  0  0
   -6.2988    7.5585  -14.9981 O   0  0  0  0  0  0  0  0  0  0  0  0
   -7.6966    7.9451  -17.0429 O   0  0  0  0  0  0  0  0  0  0  0  0
   -7.5962    2.1766  -13.6960 O   0  0  0  0  0  0  0  0  0  0  0  0
   -8.8448    4.9444   -7.1806 F   0  0  0  0  0  0  0  0  0  0  0  0
   -7.3314    7.1092  -15.9140 S   0  0  0  0  0  0  0  0  0  0  0  0
  -10.3842    7.6101  -17.1237 Cl  0  0  0  0  0  0  0  0  0  0  0  0
  -10.0928    3.6940  -20.3756 H   0  0  0  0  0  0  0  0  0  0  0  0
  -10.8816    3.6368  -18.0246 H   0  0  0  0  0  0  0  0  0  0  0  0
   -7.8421    4.5903  -20.9076 H   0  0  0  0  0  0  0  0  0  0  0  0
  -11.9896    6.1691  -12.8739 H   0  0  0  0  0  0  0  0  0  0  0  0
   -9.4282    4.4696  -16.2065 H   0  0  0  0  0  0  0  0  0  0  0  0
   -6.3788    5.4260  -19.0988 H   0  0  0  0  0  0  0  0  0  0  0  0
  -12.1913    6.9143  -15.1825 H   0  0  0  0  0  0  0  0  0  0  0  0
   -7.6856    6.3770  -13.1682 H   0  0  0  0  0  0  0  0  0  0  0  0
   -5.0550    3.4429  -16.5854 H   0  0  0  0  0  0  0  0  0  0  0  0
   -5.7411    1.2322  -16.2443 H   0  0  0  0  0  0  0  0  0  0  0  0
   -7.4470    4.3069  -14.7622 H   0  0  0  0  0  0  0  0  0  0  0  0
   -5.8283    4.9935  -14.7149 H   0  0  0  0  0  0  0  0  0  0  0  0
   -8.4456    1.6780  -15.5516 H   0  0  0  0  0  0  0  0  0  0  0  0
   -7.4550    0.4531  -14.7858 H   0  0  0  0  0  0  0  0  0  0  0  0
   -5.8620    0.3433  -10.7691 H   0  0  0  0  0  0  0  0  0  0  0  0
   -6.7739    1.0240   -9.4672 H   0  0  0  0  0  0  0  0  0  0  0  0
   -6.4554    4.1910  -10.5970 H   0  0  0  0  0  0  0  0  0  0  0  0
   -6.7591    4.1232  -12.3222 H   0  0  0  0  0  0  0  0  0  0  0  0
  -10.9320    3.5262   -7.1493 H   0  0  0  0  0  0  0  0  0  0  0  0
  -10.1409    1.9493   -7.3987 H   0  0  0  0  0  0  0  0  0  0  0  0
   -5.1860    2.8359   -9.1529 H   0  0  0  0  0  0  0  0  0  0  0  0
   -4.2950    1.3211   -9.1698 H   0  0  0  0  0  0  0  0  0  0  0  0
   -4.5861    3.2290  -12.8076 H   0  0  0  0  0  0  0  0  0  0  0  0
   -4.3395    4.4717  -11.5988 H   0  0  0  0  0  0  0  0  0  0  0  0
  -11.7655    4.6239   -9.2701 H   0  0  0  0  0  0  0  0  0  0  0  0
  -10.1836    5.3636   -9.0066 H   0  0  0  0  0  0  0  0  0  0  0  0
   -7.1512    4.0353   -8.6791 H   0  0  0  0  0  0  0  0  0  0  0  0
   -7.3204    2.3039   -8.2319 H   0  0  0  0  0  0  0  0  0  0  0  0
   -5.9614    1.1527  -12.9687 H   0  0  0  0  0  0  0  0  0  0  0  0
   -7.5290    0.4613  -12.5348 H   0  0  0  0  0  0  0  0  0  0  0  0
  -10.7874    2.3936   -9.6112 H   0  0  0  0  0  0  0  0  0  0  0  0
   -8.3811    3.2109   -6.3178 H   0  0  0  0  0  0  0  0  0  0  0  0
  -11.2508    4.4696  -11.6159 H   0  0  0  0  0  0  0  0  0  0  0  0
   -3.2508    2.9819  -10.5062 H   0  0  0  0  0  0  0  0  0  0  0  0
  1  2  2  0  0  0  0
  1  3  1  0  0  0  0
  2  5  1  0  0  0  0
  3  6  2  0  0  0  0
  4  7  1  0  0  0  0
  4  9  2  0  0  0  0
  5 10  2  0  0  0  0
  6 10  1  0  0  0  0
  7 12  2  0  0  0  0
  8  9  1  0  0  0  0
  8 11  2  0  0  0  0
  9 15  1  0  0  0  0
 10 32  1  0  0  0  0
 11 12  1  0  0  0  0
 11 40  1  0  0  0  0
 12 41  1  0  0  0  0
 13 14  2  3  0  0  0
 13 17  1  0  0  0  0
 14 18  1  0  0  0  0
 15 30  1  0  0  0  0
 15 34  2  0  0  0  0
 16 29  1  0  0  0  0
 16 33  1  0  0  0  0
 16 35  2  0  0  0  0
 17 32  1  0  0  0  0
 18 38  1  0  0  0  0
 19 22  1  0  0  0  0
 19 29  1  0  0  0  0
 20 23  1  0  0  0  0
 20 29  1  0  0  0  0
 21 27  1  1  0  0  0
 21 28  1  0  0  0  0
 22 31  1  0  0  0  0
 23 31  1  0  0  0  0
 24 27  1  0  0  0  0
 24 30  1  0  0  0  0
 25 28  1  0  0  0  0
 25 33  1  0  0  0  0
 26 29  1  0  0  0  0
 26 38  1  0  0  0  0
 27 33  1  0  0  0  0
 28 39  1  1  0  0  0
 32 40  1  0  0  0  0
 36 40  2  0  0  0  0
 37 40  2  0  0  0  0
  1 42  1  0  0  0  0
  2 43  1  0  0  0  0
  3 44  1  0  0  0  0
  4 45  1  0  0  0  0
  5 46  1  0  0  0  0
  6 47  1  0  0  0  0
  7 48  1  0  0  0  0
  8 49  1  0  0  0  0
 13 50  1  0  0  0  0
 14 51  1  0  0  0  0
 17 52  1  0  0  0  0
 17 53  1  0  0  0  0
 18 54  1  0  0  0  0
 18 55  1  0  0  0  0
 19 56  1  0  0  0  0
 19 57  1  0  0  0  0
 20 58  1  0  0  0  0
 20 59  1  0  0  0  0
 21 60  1  0  0  0  0
 21 61  1  0  0  0  0
 22 62  1  0  0  0  0
 22 63  1  0  0  0  0
 23 64  1  0  0  0  0
 23 65  1  0  0  0  0
 24 66  1  0  0  0  0
 24 67  1  0  0  0  0
 25 68  1  0  0  0  0
 25 69  1  0  0  0  0
 26 70  1  0  0  0  0
 26 71  1  0  0  0  0
 27 72  1  0  0  0  0
 28 73  1  0  0  0  0
 30 74  1  0  0  0  0
 31 75  1  0  0  0  0
M  END
> <id>
EN300-27748579

> <smiles>
OC(=O)C(F)(F)F.F[C@H]1C[C@H]2CNC(=O)C=3C=CC(Cl)=C(C3)S(=O)(=O)N(CC=CCOCC4(CCNCC4)C(=O)N2C1)C=5C=CC=CC5

> <IUPAC Name>
(5'S,7'S)-21'-chloro-7'-fluoro-18'-phenyl-13'-oxa-19'lambda6-thia-3',9',18'-triazaspiro[piperidine-4,11'-tricyclo[18.3.1.0,5,9]tetracosane]-1'(24'),15',20',22'-tetraene-2',10',19',19'-tetrone; trifluoroacetic acid

> <CAS>
2648869-91-2

> <Purity>
95

> <URL>
https://www.enaminestore.com/catalog/EN300-27748579

> <Saltdate>
OC(=O)C(F)(F)F

> <ROCS_ShapeQuery>
_x0404_0B

> <ROCS_TanimotoCombo>
0.430 

> <ROCS_ShapeTanimoto>
0.361 

> <ROCS_ColorTanimoto>
0.069 

> <ROCS_RefTversky>
0.347 

> <ROCS_RefColorTversky>
0.079 

> <ROCS_RefTverskyCombo>
0.426 

> <ROCS_FitTversky>
1.123 

> <ROCS_FitColorTversky>
0.355 

> <ROCS_FitTverskyCombo>
1.478 

> <ROCS_ColorScore>
-5.733

> <ROCS_Overlap>
2331.871

> <ROCS_Rank>
430                 

$$$$
untitled-dbase-105107_147
  -OEChem-08222312023D

 45 48  0     1  0  0  0  0  0999 V2000
   -8.5098    7.1605  -15.1846 C   0  0  0  0  0  0  0  0  0  0  0  0
   -8.7762    3.3242   -6.8805 C   0  0  0  0  0  0  0  0  0  0  0  0
   -9.1663    2.2136   -7.6263 C   0  0  0  0  0  0  0  0  0  0  0  0
   -8.6189    4.5755   -7.4876 C   0  0  0  0  0  0  0  0  0  0  0  0
   -9.4112    2.3169   -8.9986 C   0  0  0  0  0  0  0  0  0  0  0  0
   -8.8601    4.7039   -8.8699 C   0  0  0  0  0  0  0  0  0  0  0  0
   -9.2499    3.5740   -9.5920 C   0  0  0  0  0  0  0  0  0  0  0  0
   -8.8007    5.7877   -9.7901 C   0  0  0  0  0  0  0  0  0  0  0  0
   -9.1487    5.3037  -11.0301 C   0  0  0  0  0  0  0  0  0  0  0  0
   -9.2411    6.0208  -12.3088 C   0  0  0  0  0  0  0  0  0  0  0  0
   -7.4851    5.7725  -17.8701 C   0  0  0  0  0  0  0  0  0  0  0  0
   -7.1084    3.5696  -13.8344 C   0  0  0  0  0  0  0  0  0  0  0  0
   -8.7338    5.2973  -18.5944 C   0  0  0  0  0  0  0  0  0  0  0  0
   -7.2150    4.9278  -16.6253 C   0  0  0  0  0  0  0  0  0  0  0  0
   -8.1976    3.3842  -14.8903 C   0  0  0  0  0  0  0  0  0  0  0  0
   -7.1199    4.9677  -13.2284 C   0  0  0  0  0  0  0  0  0  0  0  0
   -9.8951    5.1812  -17.6248 C   0  0  0  0  0  0  0  0  0  0  0  0
   -8.9040    5.8050  -14.7609 C   0  0  1  0  0  0  0  0  0  0  0  0
   -8.4615    4.6573  -15.7395 C   0  0  1  0  0  0  0  0  0  0  0  0
   -8.1995    8.2276  -15.5182 N   0  0  0  0  0  0  0  0  0  0  0  0
   -9.4182    3.9676  -10.9005 N   0  0  0  0  0  0  0  0  0  0  0  0
   -8.4392    5.5881  -13.3734 N   0  0  0  0  0  0  0  0  0  0  0  0
  -10.0409    6.9549  -12.3528 O   0  0  0  0  0  0  0  0  0  0  0  0
   -9.5785    4.2759  -16.5733 O   0  0  0  0  0  0  0  0  0  0  0  0
   -8.3709    7.3871   -9.3940 Cl  0  0  0  0  0  0  0  0  0  0  0  0
   -8.5910    3.2191   -5.8147 H   0  0  0  0  0  0  0  0  0  0  0  0
   -9.2827    1.2513   -7.1344 H   0  0  0  0  0  0  0  0  0  0  0  0
   -8.3134    5.4298   -6.8901 H   0  0  0  0  0  0  0  0  0  0  0  0
   -9.7154    1.4518   -9.5782 H   0  0  0  0  0  0  0  0  0  0  0  0
   -6.6208    5.7287  -18.5480 H   0  0  0  0  0  0  0  0  0  0  0  0
   -7.5991    6.8276  -17.5835 H   0  0  0  0  0  0  0  0  0  0  0  0
   -7.2305    2.8229  -13.0357 H   0  0  0  0  0  0  0  0  0  0  0  0
   -6.1255    3.3767  -14.2877 H   0  0  0  0  0  0  0  0  0  0  0  0
   -8.9867    6.0271  -19.3720 H   0  0  0  0  0  0  0  0  0  0  0  0
   -8.5493    4.3385  -19.0876 H   0  0  0  0  0  0  0  0  0  0  0  0
   -6.7385    3.9799  -16.9316 H   0  0  0  0  0  0  0  0  0  0  0  0
   -6.4601    5.4661  -16.0224 H   0  0  0  0  0  0  0  0  0  0  0  0
   -7.9161    2.5468  -15.5548 H   0  0  0  0  0  0  0  0  0  0  0  0
   -9.1133    3.0480  -14.3762 H   0  0  0  0  0  0  0  0  0  0  0  0
   -6.8277    4.9115  -12.1799 H   0  0  0  0  0  0  0  0  0  0  0  0
   -6.3963    5.6082  -13.7367 H   0  0  0  0  0  0  0  0  0  0  0  0
  -10.0900    6.1547  -17.1704 H   0  0  0  0  0  0  0  0  0  0  0  0
  -10.8120    4.8733  -18.1292 H   0  0  0  0  0  0  0  0  0  0  0  0
  -10.0147    5.7959  -14.7496 H   0  0  0  0  0  0  0  0  0  0  0  0
   -9.6994    3.3553  -11.6540 H   0  0  0  0  0  0  0  0  0  0  0  0
  1 18  1  0  0  0  0
  1 20  3  0  0  0  0
  2  3  2  0  0  0  0
  2  4  1  0  0  0  0
  3  5  1  0  0  0  0
  4  6  2  0  0  0  0
  5  7  2  0  0  0  0
  6  7  1  0  0  0  0
  6  8  1  0  0  0  0
  7 21  1  0  0  0  0
  8  9  2  0  0  0  0
  8 25  1  0  0  0  0
  9 10  1  0  0  0  0
  9 21  1  0  0  0  0
 10 22  1  0  0  0  0
 10 23  2  0  0  0  0
 11 13  1  0  0  0  0
 11 14  1  0  0  0  0
 12 15  1  0  0  0  0
 12 16  1  0  0  0  0
 13 17  1  0  0  0  0
 14 19  1  0  0  0  0
 15 19  1  0  0  0  0
 16 22  1  0  0  0  0
 17 24  1  0  0  0  0
 18 19  1  0  0  0  0
 18 22  1  0  0  0  0
 19 24  1  0  0  0  0
  2 26  1  0  0  0  0
  3 27  1  0  0  0  0
  4 28  1  0  0  0  0
  5 29  1  0  0  0  0
 11 30  1  0  0  0  0
 11 31  1  0  0  0  0
 12 32  1  0  0  0  0
 12 33  1  0  0  0  0
 13 34  1  0  0  0  0
 13 35  1  0  0  0  0
 14 36  1  0  0  0  0
 14 37  1  0  0  0  0
 15 38  1  0  0  0  0
 15 39  1  0  0  0  0
 16 40  1  0  0  0  0
 16 41  1  0  0  0  0
 17 42  1  0  0  0  0
 17 43  1  0  0  0  0
 18 44  1  0  0  0  0
 21 45  1  0  0  0  0
M  END
> <id>
EN300-6636555

> <smiles>
ClC1=C(NC=2C=CC=CC12)C(=O)N3CCCC4(CCCCO4)C3C#N

> <IUPAC Name>
8-(3-chloro-1H-indole-2-carbonyl)-1-oxa-8-azaspiro[5.5]undecane-7-carbonitrile

> <CAS>
1952323-41-9

> <URL>
https://www.enaminestore.com/catalog/EN300-6636555

> <ROCS_ShapeQuery>
_x0404_0B

> <ROCS_TanimotoCombo>
0.430 

> <ROCS_ShapeTanimoto>
0.384 

> <ROCS_ColorTanimoto>
0.046 

> <ROCS_RefTversky>
0.337 

> <ROCS_RefColorTversky>
0.050 

> <ROCS_RefTverskyCombo>
0.387 

> <ROCS_FitTversky>
1.578 

> <ROCS_FitColorTversky>
0.319 

> <ROCS_FitTverskyCombo>
1.898 

> <ROCS_ColorScore>
-3.639

> <ROCS_Overlap>
2251.765

> <ROCS_Rank>
431                 

$$$$
untitled-dbase-103349_3
  -OEChem-08222312023D

 36 39  0     0  0  0  0  0  0999 V2000
   -8.3922    6.4356  -14.2160 C   0  0  0  0  0  0  0  0  0  0  0  0
   -9.2861    0.8302  -12.7375 C   0  0  0  0  0  0  0  0  0  0  0  0
   -8.9939    7.4091  -12.0608 C   0  0  0  0  0  0  0  0  0  0  0  0
   -9.2755    7.2635  -10.7051 C   0  0  0  0  0  0  0  0  0  0  0  0
   -9.5423    2.0025  -12.0264 C   0  0  0  0  0  0  0  0  0  0  0  0
   -8.2038    0.0235  -12.3860 C   0  0  0  0  0  0  0  0  0  0  0  0
   -8.6794    5.0212  -12.2401 C   0  0  0  0  0  0  0  0  0  0  0  0
   -7.6336    1.5616  -10.6122 C   0  0  0  0  0  0  0  0  0  0  0  0
   -8.6916    6.2895  -12.8262 C   0  0  0  0  0  0  0  0  0  0  0  0
   -9.2636    5.9930  -10.1085 C   0  0  0  0  0  0  0  0  0  0  0  0
   -8.7160    2.3682  -10.9638 C   0  0  0  0  0  0  0  0  0  0  0  0
   -8.9793    4.8444  -10.8752 C   0  0  0  0  0  0  0  0  0  0  0  0
   -7.3775    0.3892  -11.3234 C   0  0  0  0  0  0  0  0  0  0  0  0
   -9.5319    5.8753   -8.6745 C   0  0  0  0  0  0  0  0  0  0  0  0
   -9.5102    4.6889   -8.0568 C   0  0  0  0  0  0  0  0  0  0  0  0
   -9.2261    3.4535   -8.8569 C   0  0  0  0  0  0  0  0  0  0  0  0
   -9.7798    4.6137   -6.6060 C   0  0  0  0  0  0  0  0  0  0  0  0
   -9.4830    2.1667   -6.8930 C   0  0  0  0  0  0  0  0  0  0  0  0
   -8.1490    6.5543  -15.3446 N   0  0  0  0  0  0  0  0  0  0  0  0
   -9.2368    2.2939   -8.2421 N   0  0  0  0  0  0  0  0  0  0  0  0
   -9.7392    3.3129   -6.1397 N   0  0  0  0  0  0  0  0  0  0  0  0
   -8.9741    3.5505  -10.2473 N   0  0  0  0  0  0  0  0  0  0  0  0
   -6.2842   -0.4274  -10.9669 N   0  0  0  0  0  0  0  0  0  0  0  0
  -10.0112    5.5918   -5.9047 O   0  0  0  0  0  0  0  0  0  0  0  0
   -9.4818    1.0646   -6.3406 O   0  0  0  0  0  0  0  0  0  0  0  0
   -9.9294    0.5451  -13.5651 H   0  0  0  0  0  0  0  0  0  0  0  0
   -9.0086    8.4024  -12.5024 H   0  0  0  0  0  0  0  0  0  0  0  0
   -9.4985    8.1518  -10.1183 H   0  0  0  0  0  0  0  0  0  0  0  0
  -10.3885    2.6234  -12.3095 H   0  0  0  0  0  0  0  0  0  0  0  0
   -8.0137   -0.8885  -12.9462 H   0  0  0  0  0  0  0  0  0  0  0  0
   -8.4405    4.1600  -12.8620 H   0  0  0  0  0  0  0  0  0  0  0  0
   -6.9887    1.8466   -9.7839 H   0  0  0  0  0  0  0  0  0  0  0  0
   -9.7400    6.7932   -8.1328 H   0  0  0  0  0  0  0  0  0  0  0  0
   -9.9136    3.1778   -5.1477 H   0  0  0  0  0  0  0  0  0  0  0  0
   -6.1401   -1.2892  -11.4531 H   0  0  0  0  0  0  0  0  0  0  0  0
   -5.7279   -0.1787  -10.1740 H   0  0  0  0  0  0  0  0  0  0  0  0
  1  9  1  0  0  0  0
  1 19  3  0  0  0  0
  2  5  2  0  0  0  0
  2  6  1  0  0  0  0
  3  4  1  0  0  0  0
  3  9  2  0  0  0  0
  4 10  2  0  0  0  0
  5 11  1  0  0  0  0
  6 13  2  0  0  0  0
  7  9  1  0  0  0  0
  7 12  2  0  0  0  0
  8 11  2  0  0  0  0
  8 13  1  0  0  0  0
 10 12  1  0  0  0  0
 10 14  1  0  0  0  0
 11 22  1  0  0  0  0
 12 22  1  0  0  0  0
 13 23  1  0  0  0  0
 14 15  2  0  0  0  0
 15 16  1  0  0  0  0
 15 17  1  0  0  0  0
 16 20  2  0  0  0  0
 16 22  1  0  0  0  0
 17 21  1  0  0  0  0
 17 24  2  0  0  0  0
 18 20  1  0  0  0  0
 18 21  1  0  0  0  0
 18 25  2  0  0  0  0
  2 26  1  0  0  0  0
  3 27  1  0  0  0  0
  4 28  1  0  0  0  0
  5 29  1  0  0  0  0
  6 30  1  0  0  0  0
  7 31  1  0  0  0  0
  8 32  1  0  0  0  0
 14 33  1  0  0  0  0
 21 34  1  0  0  0  0
 23 35  1  0  0  0  0
 23 36  1  0  0  0  0
M  END
> <id>
EN300-27112803

> <smiles>
Cl.NC=1C=CC=C(C1)N2C=3C=C(C#N)C=CC3C=C4C(=O)NC(=O)N=C24

> <MDLNUMBER>
MFCD32852645

> <IUPAC Name>
10-(3-aminophenyl)-2,4-dioxo-2H,3H,4H,10H-pyrimido[4,5-b]quinoline-8-carbonitrile hydrochloride

> <CAS>
2490418-78-3

> <Purity>
95

> <URL>
https://www.enaminestore.com/catalog/EN300-27112803

> <Saltdate>
Cl

> <ROCS_ShapeQuery>
_x0404_0B

> <ROCS_TanimotoCombo>
0.430 

> <ROCS_ShapeTanimoto>
0.263 

> <ROCS_ColorTanimoto>
0.167 

> <ROCS_RefTversky>
0.254 

> <ROCS_RefColorTversky>
0.173 

> <ROCS_RefTverskyCombo>
0.427 

> <ROCS_FitTversky>
1.158 

> <ROCS_FitColorTversky>
0.823 

> <ROCS_FitTverskyCombo>
1.981 

> <ROCS_ColorScore>
-12.509

> <ROCS_Overlap>
1699.290

> <ROCS_Rank>
432                 

$$$$
untitled-dbase-103161_3
  -OEChem-08222312023D

 36 39  0     0  0  0  0  0  0999 V2000
   -8.3922    6.4356  -14.2160 C   0  0  0  0  0  0  0  0  0  0  0  0
   -9.2861    0.8302  -12.7375 C   0  0  0  0  0  0  0  0  0  0  0  0
   -8.9939    7.4091  -12.0608 C   0  0  0  0  0  0  0  0  0  0  0  0
   -9.2755    7.2635  -10.7051 C   0  0  0  0  0  0  0  0  0  0  0  0
   -9.5423    2.0025  -12.0264 C   0  0  0  0  0  0  0  0  0  0  0  0
   -8.2038    0.0235  -12.3860 C   0  0  0  0  0  0  0  0  0  0  0  0
   -8.6794    5.0212  -12.2401 C   0  0  0  0  0  0  0  0  0  0  0  0
   -7.6336    1.5616  -10.6122 C   0  0  0  0  0  0  0  0  0  0  0  0
   -8.6916    6.2895  -12.8262 C   0  0  0  0  0  0  0  0  0  0  0  0
   -9.2636    5.9930  -10.1085 C   0  0  0  0  0  0  0  0  0  0  0  0
   -8.7160    2.3682  -10.9638 C   0  0  0  0  0  0  0  0  0  0  0  0
   -8.9793    4.8444  -10.8752 C   0  0  0  0  0  0  0  0  0  0  0  0
   -7.3775    0.3892  -11.3234 C   0  0  0  0  0  0  0  0  0  0  0  0
   -9.5319    5.8753   -8.6745 C   0  0  0  0  0  0  0  0  0  0  0  0
   -9.5102    4.6889   -8.0568 C   0  0  0  0  0  0  0  0  0  0  0  0
   -9.2261    3.4535   -8.8569 C   0  0  0  0  0  0  0  0  0  0  0  0
   -9.7798    4.6137   -6.6060 C   0  0  0  0  0  0  0  0  0  0  0  0
   -9.4830    2.1667   -6.8930 C   0  0  0  0  0  0  0  0  0  0  0  0
   -8.1490    6.5543  -15.3446 N   0  0  0  0  0  0  0  0  0  0  0  0
   -9.2368    2.2939   -8.2421 N   0  0  0  0  0  0  0  0  0  0  0  0
   -9.7392    3.3129   -6.1397 N   0  0  0  0  0  0  0  0  0  0  0  0
   -8.9741    3.5505  -10.2473 N   0  0  0  0  0  0  0  0  0  0  0  0
   -6.2842   -0.4274  -10.9669 N   0  0  0  0  0  0  0  0  0  0  0  0
  -10.0112    5.5918   -5.9047 O   0  0  0  0  0  0  0  0  0  0  0  0
   -9.4818    1.0646   -6.3406 O   0  0  0  0  0  0  0  0  0  0  0  0
   -9.9294    0.5451  -13.5651 H   0  0  0  0  0  0  0  0  0  0  0  0
   -9.0086    8.4024  -12.5024 H   0  0  0  0  0  0  0  0  0  0  0  0
   -9.4985    8.1518  -10.1183 H   0  0  0  0  0  0  0  0  0  0  0  0
  -10.3885    2.6234  -12.3095 H   0  0  0  0  0  0  0  0  0  0  0  0
   -8.0137   -0.8885  -12.9462 H   0  0  0  0  0  0  0  0  0  0  0  0
   -8.4405    4.1600  -12.8620 H   0  0  0  0  0  0  0  0  0  0  0  0
   -6.9887    1.8466   -9.7839 H   0  0  0  0  0  0  0  0  0  0  0  0
   -9.7400    6.7932   -8.1328 H   0  0  0  0  0  0  0  0  0  0  0  0
   -9.9136    3.1778   -5.1477 H   0  0  0  0  0  0  0  0  0  0  0  0
   -6.1401   -1.2892  -11.4531 H   0  0  0  0  0  0  0  0  0  0  0  0
   -5.7279   -0.1787  -10.1740 H   0  0  0  0  0  0  0  0  0  0  0  0
  1  9  1  0  0  0  0
  1 19  3  0  0  0  0
  2  5  2  0  0  0  0
  2  6  1  0  0  0  0
  3  4  1  0  0  0  0
  3  9  2  0  0  0  0
  4 10  2  0  0  0  0
  5 11  1  0  0  0  0
  6 13  2  0  0  0  0
  7  9  1  0  0  0  0
  7 12  2  0  0  0  0
  8 11  2  0  0  0  0
  8 13  1  0  0  0  0
 10 12  1  0  0  0  0
 10 14  1  0  0  0  0
 11 22  1  0  0  0  0
 12 22  1  0  0  0  0
 13 23  1  0  0  0  0
 14 15  2  0  0  0  0
 15 16  1  0  0  0  0
 15 17  1  0  0  0  0
 16 20  2  0  0  0  0
 16 22  1  0  0  0  0
 17 21  1  0  0  0  0
 17 24  2  0  0  0  0
 18 20  1  0  0  0  0
 18 21  1  0  0  0  0
 18 25  2  0  0  0  0
  2 26  1  0  0  0  0
  3 27  1  0  0  0  0
  4 28  1  0  0  0  0
  5 29  1  0  0  0  0
  6 30  1  0  0  0  0
  7 31  1  0  0  0  0
  8 32  1  0  0  0  0
 14 33  1  0  0  0  0
 21 34  1  0  0  0  0
 23 35  1  0  0  0  0
 23 36  1  0  0  0  0
M  END
> <id>
EN300-27079244

> <smiles>
NC=1C=CC=C(C1)N2C=3C=C(C#N)C=CC3C=C4C(=O)NC(=O)N=C24

> <MDLNUMBER>
MFCD32852558

> <IUPAC Name>
10-(3-aminophenyl)-2,4-dioxo-2H,3H,4H,10H-pyrimido[4,5-b]quinoline-8-carbonitrile

> <CAS>
1448807-88-2

> <URL>
https://www.enaminestore.com/catalog/EN300-27079244

> <ROCS_ShapeQuery>
_x0404_0B

> <ROCS_TanimotoCombo>
0.430 

> <ROCS_ShapeTanimoto>
0.263 

> <ROCS_ColorTanimoto>
0.167 

> <ROCS_RefTversky>
0.254 

> <ROCS_RefColorTversky>
0.173 

> <ROCS_RefTverskyCombo>
0.427 

> <ROCS_FitTversky>
1.158 

> <ROCS_FitColorTversky>
0.823 

> <ROCS_FitTverskyCombo>
1.981 

> <ROCS_ColorScore>
-12.509

> <ROCS_Overlap>
1699.290

> <ROCS_Rank>
433                 

$$$$
untitled-dbase-87572_11
  -OEChem-08222312023D

 44 45  0     1  0  0  0  0  0999 V2000
  -10.5429    1.8165   -9.0692 C   0  5  0  0  0  0  0  0  0  0  0  0
   -9.1603    6.3718  -12.3248 C   0  0  0  0  0  0  0  0  0  0  0  0
   -9.1741    6.7528  -10.9841 C   0  0  0  0  0  0  0  0  0  0  0  0
   -8.7123    4.0936  -11.6666 C   0  0  0  0  0  0  0  0  0  0  0  0
   -8.7198    4.4653  -10.3134 C   0  0  0  0  0  0  0  0  0  0  0  0
   -8.9324    5.0415  -12.6662 C   0  0  0  0  0  0  0  0  0  0  0  0
   -8.9653    5.8026   -9.9796 C   0  0  0  0  0  0  0  0  0  0  0  0
   -8.5463    5.4061  -15.1216 C   0  0  0  0  0  0  0  0  0  0  0  0
   -8.1735    4.0917   -7.9113 C   0  0  0  0  0  0  0  0  0  0  0  0
   -8.4633    3.4326   -9.2553 C   0  0  1  0  0  0  0  0  0  0  0  0
   -9.0783    5.3075   -7.6386 C   0  0  0  0  0  0  0  0  0  0  0  0
   -8.5692    6.0208   -6.3756 C   0  0  0  0  0  0  0  0  0  0  0  0
  -10.5520    4.9354   -7.4173 C   0  0  0  0  0  0  0  0  0  0  0  0
   -6.8721    5.6983  -17.4218 C   0  0  0  0  0  0  0  0  0  0  0  0
   -8.5538    4.2524  -18.6009 C   0  0  0  0  0  0  0  0  0  0  0  0
   -9.2488    6.4844  -17.6826 C   0  0  0  0  0  0  0  0  0  0  0  0
   -8.3383    5.2731  -17.4856 C   0  0  0  0  0  0  0  0  0  0  0  0
   -9.5897    2.5573   -9.1545 N   0  3  0  0  0  0  0  0  0  0  0  0
   -8.9178    4.6576  -14.0074 N   0  0  0  0  0  0  0  0  0  0  0  0
   -8.1547    6.5667  -15.1360 O   0  0  0  0  0  0  0  0  0  0  0  0
   -8.9968    6.2799   -8.6961 O   0  0  0  0  0  0  0  0  0  0  0  0
   -8.6834    4.6396  -16.2482 O   0  0  0  0  0  0  0  0  0  0  0  0
   -9.3291    7.1216  -13.0936 H   0  0  0  0  0  0  0  0  0  0  0  0
   -9.3543    7.7935  -10.7269 H   0  0  0  0  0  0  0  0  0  0  0  0
   -8.5267    3.0557  -11.9377 H   0  0  0  0  0  0  0  0  0  0  0  0
   -8.2468    3.3591   -7.0981 H   0  0  0  0  0  0  0  0  0  0  0  0
   -7.1305    4.4389   -7.9364 H   0  0  0  0  0  0  0  0  0  0  0  0
   -7.5964    2.8224   -9.5372 H   0  0  0  0  0  0  0  0  0  0  0  0
   -9.1984    6.8812   -6.1707 H   0  0  0  0  0  0  0  0  0  0  0  0
   -7.5464    6.3471   -6.5350 H   0  0  0  0  0  0  0  0  0  0  0  0
   -8.6062    5.3341   -5.5357 H   0  0  0  0  0  0  0  0  0  0  0  0
  -11.1275    5.8374   -7.2317 H   0  0  0  0  0  0  0  0  0  0  0  0
  -10.6315    4.2712   -6.5620 H   0  0  0  0  0  0  0  0  0  0  0  0
  -10.9344    4.4360   -8.3024 H   0  0  0  0  0  0  0  0  0  0  0  0
   -6.7132    6.4310  -16.6225 H   0  0  0  0  0  0  0  0  0  0  0  0
   -6.2114    4.8431  -17.2460 H   0  0  0  0  0  0  0  0  0  0  0  0
   -6.5656    6.1865  -18.3540 H   0  0  0  0  0  0  0  0  0  0  0  0
   -9.6046    3.9445  -18.6503 H   0  0  0  0  0  0  0  0  0  0  0  0
   -7.9738    3.3415  -18.4137 H   0  0  0  0  0  0  0  0  0  0  0  0
   -8.2639    4.6535  -19.5773 H   0  0  0  0  0  0  0  0  0  0  0  0
  -10.3006    6.1797  -17.7283 H   0  0  0  0  0  0  0  0  0  0  0  0
   -9.1345    7.2109  -16.8716 H   0  0  0  0  0  0  0  0  0  0  0  0
   -9.0304    6.9856  -18.6325 H   0  0  0  0  0  0  0  0  0  0  0  0
   -9.2207    3.6968  -14.1982 H   0  0  0  0  0  0  0  0  0  0  0  0
  1 18  3  0  0  0  0
  2  3  1  0  0  0  0
  2  6  2  0  0  0  0
  3  7  2  0  0  0  0
  4  5  2  0  0  0  0
  4  6  1  0  0  0  0
  5  7  1  0  0  0  0
  5 10  1  0  0  0  0
  6 19  1  0  0  0  0
  7 21  1  0  0  0  0
  8 19  1  0  0  0  0
  8 20  2  0  0  0  0
  8 22  1  0  0  0  0
  9 10  1  0  0  0  0
  9 11  1  0  0  0  0
 10 18  1  0  0  0  0
 11 12  1  0  0  0  0
 11 13  1  0  0  0  0
 11 21  1  0  0  0  0
 14 17  1  0  0  0  0
 15 17  1  0  0  0  0
 16 17  1  0  0  0  0
 17 22  1  0  0  0  0
  2 23  1  0  0  0  0
  3 24  1  0  0  0  0
  4 25  1  0  0  0  0
  9 26  1  0  0  0  0
  9 27  1  0  0  0  0
 10 28  1  0  0  0  0
 12 29  1  0  0  0  0
 12 30  1  0  0  0  0
 12 31  1  0  0  0  0
 13 32  1  0  0  0  0
 13 33  1  0  0  0  0
 13 34  1  0  0  0  0
 14 35  1  0  0  0  0
 14 36  1  0  0  0  0
 14 37  1  0  0  0  0
 15 38  1  0  0  0  0
 15 39  1  0  0  0  0
 15 40  1  0  0  0  0
 16 41  1  0  0  0  0
 16 42  1  0  0  0  0
 16 43  1  0  0  0  0
 19 44  1  0  0  0  0
M  CHG  2   1  -1  18   1
M  END
> <id>
EN300-6511988

> <smiles>
CC(C)(C)OC(=O)NC=1C=CC=2OC(C)(C)CC([N+]#[C-])C2C1

> <IUPAC Name>
N-[(tert-butoxy)carbonyl]-4-isocyano-2,2-dimethyl-3,4-dihydro-2H-1-benzopyran-6-amine

> <URL>
https://www.enaminestore.com/catalog/EN300-6511988

> <ROCS_ShapeQuery>
_x0404_0B

> <ROCS_TanimotoCombo>
0.430 

> <ROCS_ShapeTanimoto>
0.352 

> <ROCS_ColorTanimoto>
0.077 

> <ROCS_RefTversky>
0.311 

> <ROCS_RefColorTversky>
0.082 

> <ROCS_RefTverskyCombo>
0.393 

> <ROCS_FitTversky>
1.619 

> <ROCS_FitColorTversky>
0.568 

> <ROCS_FitTverskyCombo>
2.187 

> <ROCS_ColorScore>
-5.930

> <ROCS_Overlap>
2073.213

> <ROCS_Rank>
434                 

$$$$
untitled-dbase-76631_273
  -OEChem-08222312023D

 46 48  0     1  0  0  0  0  0999 V2000
   -9.0816    3.8740   -7.7822 C   0  0  0  0  0  0  0  0  0  0  0  0
   -8.9967    3.4087   -9.0865 C   0  0  0  0  0  0  0  0  0  0  0  0
   -8.6889    6.1533  -12.2374 C   0  0  0  0  0  0  0  0  0  0  0  0
   -8.7759    6.5896  -10.9131 C   0  0  0  0  0  0  0  0  0  0  0  0
   -8.8058    3.8739  -11.4842 C   0  0  0  0  0  0  0  0  0  0  0  0
   -9.0596    5.2404   -7.5894 C   0  0  0  0  0  0  0  0  0  0  0  0
   -8.8933    4.3130  -10.1522 C   0  0  0  0  0  0  0  0  0  0  0  0
   -8.7039    4.7939  -12.5237 C   0  0  0  0  0  0  0  0  0  0  0  0
   -8.8789    5.6917   -9.8541 C   0  0  0  0  0  0  0  0  0  0  0  0
   -7.5228    5.9298  -15.5452 C   0  0  0  0  0  0  0  0  0  0  0  0
   -6.2752    2.6827  -14.6270 C   0  0  0  0  0  0  0  0  0  0  0  0
   -6.1461    4.1778  -14.3533 C   0  0  0  0  0  0  0  0  0  0  0  0
   -8.6566    2.7865  -14.2213 C   0  0  0  0  0  0  0  0  0  0  0  0
   -8.6081    4.3116  -13.9712 C   0  0  2  0  0  0  0  0  0  0  0  0
   -7.9683    7.0485  -18.1416 C   0  0  0  0  0  0  0  0  0  0  0  0
   -5.9263    5.7642  -18.8418 C   0  0  0  0  0  0  0  0  0  0  0  0
   -7.9540    4.5349  -18.0140 C   0  0  0  0  0  0  0  0  0  0  0  0
   -7.1162    5.8063  -17.8855 C   0  0  0  0  0  0  0  0  0  0  0  0
   -8.9610    6.1462   -8.5893 N   0  0  0  0  0  0  0  0  0  0  0  0
   -7.4018    2.0940  -13.9014 N   0  0  0  0  0  0  0  0  0  0  0  0
   -7.4114    4.8583  -14.6500 N   0  0  0  0  0  0  0  0  0  0  0  0
   -8.3559    6.8293  -15.4487 O   0  0  0  0  0  0  0  0  0  0  0  0
   -6.5964    5.8770  -16.5527 O   0  0  0  0  0  0  0  0  0  0  0  0
   -9.1624    3.1896   -6.9461 H   0  0  0  0  0  0  0  0  0  0  0  0
   -9.0116    2.3363   -9.2674 H   0  0  0  0  0  0  0  0  0  0  0  0
   -8.6103    6.8857  -13.0365 H   0  0  0  0  0  0  0  0  0  0  0  0
   -8.7625    7.6600  -10.7155 H   0  0  0  0  0  0  0  0  0  0  0  0
   -8.8162    2.8091  -11.7100 H   0  0  0  0  0  0  0  0  0  0  0  0
   -9.1234    5.6625   -6.5918 H   0  0  0  0  0  0  0  0  0  0  0  0
   -6.3797    2.5004  -15.7053 H   0  0  0  0  0  0  0  0  0  0  0  0
   -5.3524    2.1810  -14.3106 H   0  0  0  0  0  0  0  0  0  0  0  0
   -5.9277    4.3548  -13.3031 H   0  0  0  0  0  0  0  0  0  0  0  0
   -5.3409    4.5962  -14.9474 H   0  0  0  0  0  0  0  0  0  0  0  0
   -9.4654    2.3308  -13.6404 H   0  0  0  0  0  0  0  0  0  0  0  0
   -8.8914    2.6108  -15.2779 H   0  0  0  0  0  0  0  0  0  0  0  0
   -9.5000    4.7553  -14.5015 H   0  0  0  0  0  0  0  0  0  0  0  0
   -8.8235    7.0823  -17.4572 H   0  0  0  0  0  0  0  0  0  0  0  0
   -7.3875    7.9684  -18.0183 H   0  0  0  0  0  0  0  0  0  0  0  0
   -8.3842    7.0351  -19.1556 H   0  0  0  0  0  0  0  0  0  0  0  0
   -5.3122    4.8745  -18.6616 H   0  0  0  0  0  0  0  0  0  0  0  0
   -5.2704    6.6285  -18.6870 H   0  0  0  0  0  0  0  0  0  0  0  0
   -6.2488    5.7567  -19.8880 H   0  0  0  0  0  0  0  0  0  0  0  0
   -7.3431    3.6437  -17.8303 H   0  0  0  0  0  0  0  0  0  0  0  0
   -8.7917    4.5309  -17.3091 H   0  0  0  0  0  0  0  0  0  0  0  0
   -8.3531    4.4323  -19.0296 H   0  0  0  0  0  0  0  0  0  0  0  0
   -7.4895    1.1095  -14.1520 H   0  0  0  0  0  0  0  0  0  0  0  0
  1  2  2  0  0  0  0
  1  6  1  0  0  0  0
  2  7  1  0  0  0  0
  3  4  1  0  0  0  0
  3  8  2  0  0  0  0
  4  9  2  0  0  0  0
  5  7  2  0  0  0  0
  5  8  1  0  0  0  0
  6 19  2  0  0  0  0
  7  9  1  0  0  0  0
  8 14  1  0  0  0  0
  9 19  1  0  0  0  0
 10 21  1  0  0  0  0
 10 22  2  0  0  0  0
 10 23  1  0  0  0  0
 11 12  1  0  0  0  0
 11 20  1  0  0  0  0
 12 21  1  0  0  0  0
 13 14  1  0  0  0  0
 13 20  1  0  0  0  0
 14 21  1  0  0  0  0
 15 18  1  0  0  0  0
 16 18  1  0  0  0  0
 17 18  1  0  0  0  0
 18 23  1  0  0  0  0
  1 24  1  0  0  0  0
  2 25  1  0  0  0  0
  3 26  1  0  0  0  0
  4 27  1  0  0  0  0
  5 28  1  0  0  0  0
  6 29  1  0  0  0  0
 11 30  1  0  0  0  0
 11 31  1  0  0  0  0
 12 32  1  0  0  0  0
 12 33  1  0  0  0  0
 13 34  1  0  0  0  0
 13 35  1  0  0  0  0
 14 36  1  0  0  0  0
 15 37  1  0  0  0  0
 15 38  1  0  0  0  0
 15 39  1  0  0  0  0
 16 40  1  0  0  0  0
 16 41  1  0  0  0  0
 16 42  1  0  0  0  0
 17 43  1  0  0  0  0
 17 44  1  0  0  0  0
 17 45  1  0  0  0  0
 20 46  1  0  0  0  0
M  END
> <id>
EN300-1882320

> <smiles>
CC(C)(C)OC(=O)N1CCNCC1C=2C=CC=3N=CC=CC3C2

> <IUPAC Name>
tert-butyl 2-(quinolin-6-yl)piperazine-1-carboxylate

> <CAS>
2229337-24-8

> <URL>
https://www.enaminestore.com/catalog/EN300-1882320

> <ROCS_ShapeQuery>
_x0404_0B

> <ROCS_TanimotoCombo>
0.430 

> <ROCS_ShapeTanimoto>
0.336 

> <ROCS_ColorTanimoto>
0.094 

> <ROCS_RefTversky>
0.302 

> <ROCS_RefColorTversky>
0.099 

> <ROCS_RefTverskyCombo>
0.401 

> <ROCS_FitTversky>
1.504 

> <ROCS_FitColorTversky>
0.630 

> <ROCS_FitTverskyCombo>
2.135 

> <ROCS_ColorScore>
-7.178

> <ROCS_Overlap>
2015.796

> <ROCS_Rank>
435                 

$$$$
untitled-dbase-5103_706
  -OEChem-08222312023D

 49 50  0     1  0  0  0  0  0999 V2000
   -8.7957    5.0892  -18.1263 C   0  0  0  0  0  0  0  0  0  0  0  0
   -7.5028    5.4753  -17.7728 C   0  0  0  0  0  0  0  0  0  0  0  0
   -9.2083    4.3879  -15.8514 C   0  0  0  0  0  0  0  0  0  0  0  0
   -7.9154    4.7739  -15.4979 C   0  0  0  0  0  0  0  0  0  0  0  0
   -9.6485    4.5455  -17.1656 C   0  0  0  0  0  0  0  0  0  0  0  0
   -7.0626    5.3177  -16.4586 C   0  0  0  0  0  0  0  0  0  0  0  0
   -8.8648    4.5771   -9.9376 C   0  0  0  0  0  0  0  0  0  0  0  0
   -7.7075    5.8512  -13.1986 C   0  0  0  0  0  0  0  0  0  0  0  0
   -8.8150    5.6663  -12.1652 C   0  0  0  0  0  0  0  0  0  0  0  0
   -7.9743    3.3221  -11.9165 C   0  0  0  0  0  0  0  0  0  0  0  0
   -7.4569    4.5918  -14.0568 C   0  0  1  0  0  0  0  0  0  0  0  0
   -8.0841    3.3242  -13.4391 C   0  0  1  0  0  0  0  0  0  0  0  0
  -11.0306    4.1323  -17.5439 C   0  0  0  0  0  0  0  0  0  0  0  0
   -5.6738    5.7372  -16.1041 C   0  0  0  0  0  0  0  0  0  0  0  0
  -10.7165    4.2373   -7.7835 C   0  0  0  0  0  0  0  0  0  0  0  0
   -9.8583    1.8799   -7.6611 C   0  0  0  0  0  0  0  0  0  0  0  0
   -8.2988    3.8022   -7.2359 C   0  0  0  0  0  0  0  0  0  0  0  0
   -9.5163    3.3230   -8.0251 C   0  0  0  0  0  0  0  0  0  0  0  0
   -8.5606    4.5139  -11.3014 N   0  0  0  0  0  0  0  0  0  0  0  0
   -8.8374    5.6070   -9.2667 O   0  0  0  0  0  0  0  0  0  0  0  0
   -7.4306    2.1629  -13.9510 O   0  0  0  0  0  0  0  0  0  0  0  0
   -9.1953    3.3516   -9.4205 O   0  0  0  0  0  0  0  0  0  0  0  0
   -9.1300    5.2153  -19.1527 H   0  0  0  0  0  0  0  0  0  0  0  0
   -6.8458    5.8972  -18.5288 H   0  0  0  0  0  0  0  0  0  0  0  0
   -9.8740    3.9645  -15.1029 H   0  0  0  0  0  0  0  0  0  0  0  0
   -7.9649    6.7066  -13.8505 H   0  0  0  0  0  0  0  0  0  0  0  0
   -6.7744    6.1432  -12.6846 H   0  0  0  0  0  0  0  0  0  0  0  0
   -8.8852    6.5510  -11.5158 H   0  0  0  0  0  0  0  0  0  0  0  0
   -9.7834    5.5639  -12.6729 H   0  0  0  0  0  0  0  0  0  0  0  0
   -8.4207    2.3974  -11.5162 H   0  0  0  0  0  0  0  0  0  0  0  0
   -6.9149    3.2834  -11.6058 H   0  0  0  0  0  0  0  0  0  0  0  0
   -6.3444    4.4197  -14.1285 H   0  0  0  0  0  0  0  0  0  0  0  0
   -9.1538    3.2519  -13.7259 H   0  0  0  0  0  0  0  0  0  0  0  0
  -11.0407    3.0846  -17.8685 H   0  0  0  0  0  0  0  0  0  0  0  0
  -11.7243    4.2418  -16.7002 H   0  0  0  0  0  0  0  0  0  0  0  0
  -11.4228    4.7533  -18.3600 H   0  0  0  0  0  0  0  0  0  0  0  0
   -5.6634    6.7862  -15.7860 H   0  0  0  0  0  0  0  0  0  0  0  0
   -5.2690    5.1215  -15.2915 H   0  0  0  0  0  0  0  0  0  0  0  0
   -4.9953    5.6242  -16.9587 H   0  0  0  0  0  0  0  0  0  0  0  0
  -10.4751    5.2742   -8.0436 H   0  0  0  0  0  0  0  0  0  0  0  0
  -11.5862    3.9250   -8.3707 H   0  0  0  0  0  0  0  0  0  0  0  0
  -10.9977    4.2418   -6.7241 H   0  0  0  0  0  0  0  0  0  0  0  0
   -9.0000    1.2203   -7.8329 H   0  0  0  0  0  0  0  0  0  0  0  0
  -10.6704    1.5002   -8.2916 H   0  0  0  0  0  0  0  0  0  0  0  0
  -10.1614    1.7885   -6.6131 H   0  0  0  0  0  0  0  0  0  0  0  0
   -7.4378    3.1465   -7.4090 H   0  0  0  0  0  0  0  0  0  0  0  0
   -8.0163    4.8235   -7.5110 H   0  0  0  0  0  0  0  0  0  0  0  0
   -8.4971    3.7740   -6.1583 H   0  0  0  0  0  0  0  0  0  0  0  0
   -7.5215    2.2002  -14.9151 H   0  0  0  0  0  0  0  0  0  0  0  0
  1  2  1  0  0  0  0
  1  5  2  0  0  0  0
  2  6  2  0  0  0  0
  3  4  2  0  0  0  0
  3  5  1  0  0  0  0
  4  6  1  0  0  0  0
  4 11  1  0  0  0  0
  5 13  1  0  0  0  0
  6 14  1  0  0  0  0
  7 19  1  0  0  0  0
  7 20  2  0  0  0  0
  7 22  1  0  0  0  0
  8  9  1  0  0  0  0
  8 11  1  0  0  0  0
  9 19  1  0  0  0  0
 10 12  1  0  0  0  0
 10 19  1  0  0  0  0
 11 12  1  0  0  0  0
 12 21  1  0  0  0  0
 15 18  1  0  0  0  0
 16 18  1  0  0  0  0
 17 18  1  0  0  0  0
 18 22  1  0  0  0  0
  1 23  1  0  0  0  0
  2 24  1  0  0  0  0
  3 25  1  0  0  0  0
  8 26  1  0  0  0  0
  8 27  1  0  0  0  0
  9 28  1  0  0  0  0
  9 29  1  0  0  0  0
 10 30  1  0  0  0  0
 10 31  1  0  0  0  0
 11 32  1  0  0  0  0
 12 33  1  0  0  0  0
 13 34  1  0  0  0  0
 13 35  1  0  0  0  0
 13 36  1  0  0  0  0
 14 37  1  0  0  0  0
 14 38  1  0  0  0  0
 14 39  1  0  0  0  0
 15 40  1  0  0  0  0
 15 41  1  0  0  0  0
 15 42  1  0  0  0  0
 16 43  1  0  0  0  0
 16 44  1  0  0  0  0
 16 45  1  0  0  0  0
 17 46  1  0  0  0  0
 17 47  1  0  0  0  0
 17 48  1  0  0  0  0
 21 49  1  0  0  0  0
M  END
> <id>
EN300-94521

> <smiles>
CC=1C=CC(C)=C(C1)C2CCN(CC2O)C(=O)OC(C)(C)C

> <MDLNUMBER>
MFCD20502174

> <IUPAC Name>
tert-butyl 4-(2,5-dimethylphenyl)-3-hydroxypiperidine-1-carboxylate

> <CAS>
1354953-02-8

> <URL>
https://www.enaminestore.com/catalog/EN300-94521

> <ROCS_ShapeQuery>
_x0404_0B

> <ROCS_TanimotoCombo>
0.430 

> <ROCS_ShapeTanimoto>
0.339 

> <ROCS_ColorTanimoto>
0.090 

> <ROCS_RefTversky>
0.301 

> <ROCS_RefColorTversky>
0.094 

> <ROCS_RefTverskyCombo>
0.395 

> <ROCS_FitTversky>
1.592 

> <ROCS_FitColorTversky>
0.713 

> <ROCS_FitTverskyCombo>
2.306 

> <ROCS_ColorScore>
-6.762

> <ROCS_Overlap>
2011.035

> <ROCS_Rank>
436                 

$$$$
untitled-dbase-90534_117
  -OEChem-08222312023D

 51 53  0     1  0  0  0  0  0999 V2000
   -9.1502    5.3990   -9.5287 C   0  0  0  0  0  0  0  0  0  0  0  0
   -9.2812    4.3111   -8.6621 C   0  0  0  0  0  0  0  0  0  0  0  0
   -8.9936    2.7961  -10.5138 C   0  0  0  0  0  0  0  0  0  0  0  0
   -8.9429    5.1989  -10.9024 C   0  0  0  0  0  0  0  0  0  0  0  0
   -8.8435    3.8845  -11.3816 C   0  0  0  0  0  0  0  0  0  0  0  0
   -9.2068    3.0111   -9.1546 C   0  0  0  0  0  0  0  0  0  0  0  0
   -6.4584    4.0183  -15.2710 C   0  0  0  0  0  0  0  0  0  0  0  0
   -7.1652    3.1987  -14.4794 C   0  0  0  0  0  0  0  0  0  0  0  0
   -8.8093    6.4164  -11.7534 C   0  0  0  0  0  0  0  0  0  0  0  0
   -8.7352    5.0152  -17.0145 C   0  0  0  0  0  0  0  0  0  0  0  0
   -6.4151    3.8800  -16.7629 C   0  0  0  0  0  0  0  0  0  0  0  0
   -7.2781    3.3584  -12.9968 C   0  0  0  0  0  0  0  0  0  0  0  0
   -8.4751    6.9672  -15.3677 C   0  0  0  0  0  0  0  0  0  0  0  0
   -7.0260    4.9436  -19.0013 C   0  0  0  0  0  0  0  0  0  0  0  0
   -6.4525    6.3798  -17.6263 C   0  0  0  0  0  0  0  0  0  0  0  0
   -9.1070    7.3930  -14.0358 C   0  0  1  0  0  0  0  0  0  0  0  0
   -7.2121    5.0248  -17.4394 C   0  0  0  0  0  0  0  0  0  0  0  0
  -10.4992    7.9991  -14.2012 C   0  0  0  0  0  0  0  0  0  0  0  0
   -9.5838    2.2496   -6.9347 C   0  0  0  0  0  0  0  0  0  0  0  0
   -9.1517    6.2807  -13.0900 N   0  0  0  0  0  0  0  0  0  0  0  0
   -9.1985    5.9082  -16.0564 N   0  0  0  0  0  0  0  0  0  0  0  0
   -5.8799    5.8598  -18.8806 N   0  0  0  0  0  0  0  0  0  0  0  0
   -8.4281    7.4646  -11.2371 O   0  0  0  0  0  0  0  0  0  0  0  0
   -9.5367    4.2035  -17.5073 O   0  0  0  0  0  0  0  0  0  0  0  0
   -8.6583    3.6205  -12.7123 O   0  0  0  0  0  0  0  0  0  0  0  0
   -9.3548    1.9548   -8.3116 O   0  0  0  0  0  0  0  0  0  0  0  0
   -9.2015    6.4067   -9.1143 H   0  0  0  0  0  0  0  0  0  0  0  0
   -9.4456    4.4884   -7.6021 H   0  0  0  0  0  0  0  0  0  0  0  0
   -8.9669    1.7761  -10.8855 H   0  0  0  0  0  0  0  0  0  0  0  0
   -5.8701    4.8076  -14.8275 H   0  0  0  0  0  0  0  0  0  0  0  0
   -7.7027    2.3589  -14.9270 H   0  0  0  0  0  0  0  0  0  0  0  0
   -5.3635    3.8967  -17.0714 H   0  0  0  0  0  0  0  0  0  0  0  0
   -6.8200    2.9135  -17.0851 H   0  0  0  0  0  0  0  0  0  0  0  0
   -6.9805    2.4254  -12.5097 H   0  0  0  0  0  0  0  0  0  0  0  0
   -6.6390    4.1762  -12.6467 H   0  0  0  0  0  0  0  0  0  0  0  0
   -8.3872    7.8294  -16.0365 H   0  0  0  0  0  0  0  0  0  0  0  0
   -7.4646    6.5850  -15.1897 H   0  0  0  0  0  0  0  0  0  0  0  0
   -6.7845    3.9588  -19.4105 H   0  0  0  0  0  0  0  0  0  0  0  0
   -7.8542    5.3630  -19.5840 H   0  0  0  0  0  0  0  0  0  0  0  0
   -7.0977    7.2545  -17.7822 H   0  0  0  0  0  0  0  0  0  0  0  0
   -5.7095    6.6430  -16.8666 H   0  0  0  0  0  0  0  0  0  0  0  0
   -8.4603    8.1686  -13.5962 H   0  0  0  0  0  0  0  0  0  0  0  0
  -11.1728    7.2621  -14.6348 H   0  0  0  0  0  0  0  0  0  0  0  0
  -10.4480    8.8659  -14.8577 H   0  0  0  0  0  0  0  0  0  0  0  0
  -10.8843    8.3080  -13.2310 H   0  0  0  0  0  0  0  0  0  0  0  0
   -9.6837    1.3174   -6.3734 H   0  0  0  0  0  0  0  0  0  0  0  0
  -10.4939    2.8465   -6.8354 H   0  0  0  0  0  0  0  0  0  0  0  0
   -8.7343    2.8166   -6.5466 H   0  0  0  0  0  0  0  0  0  0  0  0
   -9.4457    5.3705  -13.4260 H   0  0  0  0  0  0  0  0  0  0  0  0
  -10.2148    5.8035  -15.7923 H   0  0  0  0  0  0  0  0  0  0  0  0
   -4.9921    5.3784  -18.7469 H   0  0  0  0  0  0  0  0  0  0  0  0
  1  2  1  0  0  0  0
  1  4  2  0  0  0  0
  2  6  2  0  0  0  0
  3  5  2  0  0  0  0
  3  6  1  0  0  0  0
  4  5  1  0  0  0  0
  4  9  1  0  0  0  0
  5 25  1  0  0  0  0
  6 26  1  0  0  0  0
  7  8  2  0  0  0  0
  7 11  1  0  0  0  0
  8 12  1  0  0  0  0
  9 20  1  0  0  0  0
  9 23  2  0  0  0  0
 10 17  1  0  0  0  0
 10 21  1  0  0  0  0
 10 24  2  0  0  0  0
 11 17  1  0  0  0  0
 12 25  1  0  0  0  0
 13 16  1  0  0  0  0
 13 21  1  0  0  0  0
 14 17  1  0  0  0  0
 14 22  1  0  0  0  0
 15 17  1  0  0  0  0
 15 22  1  0  0  0  0
 16 18  1  6  0  0  0
 16 20  1  0  0  0  0
 19 26  1  0  0  0  0
  1 27  1  0  0  0  0
  2 28  1  0  0  0  0
  3 29  1  0  0  0  0
  7 30  1  0  0  0  0
  8 31  1  0  0  0  0
 11 32  1  0  0  0  0
 11 33  1  0  0  0  0
 12 34  1  0  0  0  0
 12 35  1  0  0  0  0
 13 36  1  0  0  0  0
 13 37  1  0  0  0  0
 14 38  1  0  0  0  0
 14 39  1  0  0  0  0
 15 40  1  0  0  0  0
 15 41  1  0  0  0  0
 16 42  1  0  0  0  0
 18 43  1  0  0  0  0
 18 44  1  0  0  0  0
 18 45  1  0  0  0  0
 19 46  1  0  0  0  0
 19 47  1  0  0  0  0
 19 48  1  0  0  0  0
 20 49  1  0  0  0  0
 21 50  1  0  0  0  0
 22 51  1  0  0  0  0
M  END
> <id>
EN300-6735321

> <smiles>
COC=1C=CC=2C(=O)N[C@H](C)CNC(=O)C3(CNC3)C/C=C/COC2C1.OC(=O)C(F)(F)F

> <MDLNUMBER>
MFCD31746643

> <IUPAC Name>
(3'E,10'R)-15'-methoxy-10'-methyl-2',5',7',8',9',10',11',12'-octahydrospiro[azetidine-3,6'-[1,8,11]benzoxadiazacyclotetradecin]-3'-ene-7',12'-dione; trifluoroacetic acid

> <CAS>
2648895-25-2

> <URL>
https://www.enaminestore.com/catalog/EN300-6735321

> <Saltdate>
OC(=O)C(F)(F)F

> <ROCS_ShapeQuery>
_x0404_0B

> <ROCS_TanimotoCombo>
0.430 

> <ROCS_ShapeTanimoto>
0.391 

> <ROCS_ColorTanimoto>
0.039 

> <ROCS_RefTversky>
0.342 

> <ROCS_RefColorTversky>
0.044 

> <ROCS_RefTverskyCombo>
0.386 

> <ROCS_FitTversky>
1.583 

> <ROCS_FitColorTversky>
0.241 

> <ROCS_FitTverskyCombo>
1.824 

> <ROCS_ColorScore>
-3.202

> <ROCS_Overlap>
2283.471

> <ROCS_Rank>
437                 

$$$$
untitled-dbase-28051_836
  -OEChem-08222312023D

 47 49  0     0  0  0  0  0  0999 V2000
   -8.7218    5.7065   -8.8389 C   0  0  0  0  0  0  0  0  0  0  0  0
   -8.9139    4.4583   -8.2374 C   0  0  0  0  0  0  0  0  0  0  0  0
   -9.1447    3.3688  -10.4025 C   0  0  0  0  0  0  0  0  0  0  0  0
   -8.9536    4.6146  -11.0235 C   0  0  0  0  0  0  0  0  0  0  0  0
   -8.7487    5.7422  -10.2334 C   0  0  0  0  0  0  0  0  0  0  0  0
   -9.1217    3.3089   -9.0034 C   0  0  0  0  0  0  0  0  0  0  0  0
   -8.7172    6.2391  -12.3891 C   0  0  0  0  0  0  0  0  0  0  0  0
   -6.8414    5.7027  -17.2519 C   0  0  0  0  0  0  0  0  0  0  0  0
   -7.1343    7.3381  -14.0699 C   0  0  0  0  0  0  0  0  0  0  0  0
   -9.4330    6.7005  -14.8677 C   0  0  0  0  0  0  0  0  0  0  0  0
   -6.5678    6.1388  -14.8243 C   0  0  0  0  0  0  0  0  0  0  0  0
   -8.8135    5.5572  -15.6775 C   0  0  0  0  0  0  0  0  0  0  0  0
   -8.6014    7.1172  -13.6323 C   0  0  0  0  0  0  0  0  0  0  0  0
   -7.9084    3.6648  -18.5154 C   0  0  0  0  0  0  0  0  0  0  0  0
   -9.4399    5.2625  -19.7033 C   0  0  0  0  0  0  0  0  0  0  0  0
   -7.0190    5.1295  -20.3589 C   0  0  0  0  0  0  0  0  0  0  0  0
   -8.0159    5.0237  -19.2058 C   0  0  0  0  0  0  0  0  0  0  0  0
   -8.9306    4.9427  -12.3597 N   0  0  0  0  0  0  0  0  0  0  0  0
   -8.6006    6.7665  -11.1331 N   0  0  0  0  0  0  0  0  0  0  0  0
   -7.4042    5.8165  -15.9774 N   0  0  0  0  0  0  0  0  0  0  0  0
   -9.3116    2.0660   -8.3587 N   0  0  0  0  0  0  0  0  0  0  0  0
   -5.6886    5.3344  -17.4701 O   0  0  0  0  0  0  0  0  0  0  0  0
   -7.7162    6.0462  -18.2486 O   0  0  0  0  0  0  0  0  0  0  0  0
   -8.5603    6.6001   -8.2468 H   0  0  0  0  0  0  0  0  0  0  0  0
   -8.8982    4.3953   -7.1510 H   0  0  0  0  0  0  0  0  0  0  0  0
   -9.3059    2.4755  -10.9989 H   0  0  0  0  0  0  0  0  0  0  0  0
   -6.5044    7.5463  -13.1881 H   0  0  0  0  0  0  0  0  0  0  0  0
   -7.0679    8.2354  -14.7063 H   0  0  0  0  0  0  0  0  0  0  0  0
   -9.5783    7.5768  -15.5318 H   0  0  0  0  0  0  0  0  0  0  0  0
  -10.4567    6.4073  -14.5532 H   0  0  0  0  0  0  0  0  0  0  0  0
   -5.5636    6.3651  -15.2023 H   0  0  0  0  0  0  0  0  0  0  0  0
   -6.4745    5.2886  -14.1429 H   0  0  0  0  0  0  0  0  0  0  0  0
   -8.9273    4.6141  -15.1302 H   0  0  0  0  0  0  0  0  0  0  0  0
   -9.3361    5.4411  -16.6362 H   0  0  0  0  0  0  0  0  0  0  0  0
   -8.9826    8.1481  -13.3146 H   0  0  0  0  0  0  0  0  0  0  0  0
   -6.8878    3.4896  -18.1568 H   0  0  0  0  0  0  0  0  0  0  0  0
   -8.5936    3.5891  -17.6648 H   0  0  0  0  0  0  0  0  0  0  0  0
   -8.1340    2.8519  -19.2150 H   0  0  0  0  0  0  0  0  0  0  0  0
   -9.5216    6.2364  -20.1993 H   0  0  0  0  0  0  0  0  0  0  0  0
  -10.1476    5.2819  -18.8667 H   0  0  0  0  0  0  0  0  0  0  0  0
   -9.7571    4.4869  -20.4079 H   0  0  0  0  0  0  0  0  0  0  0  0
   -7.0959    6.1041  -20.8542 H   0  0  0  0  0  0  0  0  0  0  0  0
   -5.9882    4.9974  -20.0143 H   0  0  0  0  0  0  0  0  0  0  0  0
   -7.2290    4.3753  -21.1260 H   0  0  0  0  0  0  0  0  0  0  0  0
   -8.4344    7.7379  -10.9060 H   0  0  0  0  0  0  0  0  0  0  0  0
   -9.5064    1.2574   -8.9115 H   0  0  0  0  0  0  0  0  0  0  0  0
   -9.3411    2.0366   -7.3609 H   0  0  0  0  0  0  0  0  0  0  0  0
  1  2  1  0  0  0  0
  1  5  2  0  0  0  0
  2  6  2  0  0  0  0
  3  4  2  0  0  0  0
  3  6  1  0  0  0  0
  4  5  1  0  0  0  0
  4 18  1  0  0  0  0
  5 19  1  0  0  0  0
  6 21  1  0  0  0  0
  7 13  1  0  0  0  0
  7 18  2  0  0  0  0
  7 19  1  0  0  0  0
  8 20  1  0  0  0  0
  8 22  2  0  0  0  0
  8 23  1  0  0  0  0
  9 11  1  0  0  0  0
  9 13  1  0  0  0  0
 10 12  1  0  0  0  0
 10 13  1  0  0  0  0
 11 20  1  0  0  0  0
 12 20  1  0  0  0  0
 14 17  1  0  0  0  0
 15 17  1  0  0  0  0
 16 17  1  0  0  0  0
 17 23  1  0  0  0  0
  1 24  1  0  0  0  0
  2 25  1  0  0  0  0
  3 26  1  0  0  0  0
  9 27  1  0  0  0  0
  9 28  1  0  0  0  0
 10 29  1  0  0  0  0
 10 30  1  0  0  0  0
 11 31  1  0  0  0  0
 11 32  1  0  0  0  0
 12 33  1  0  0  0  0
 12 34  1  0  0  0  0
 13 35  1  0  0  0  0
 14 36  1  0  0  0  0
 14 37  1  0  0  0  0
 14 38  1  0  0  0  0
 15 39  1  0  0  0  0
 15 40  1  0  0  0  0
 15 41  1  0  0  0  0
 16 42  1  0  0  0  0
 16 43  1  0  0  0  0
 16 44  1  0  0  0  0
 19 45  1  0  0  0  0
 21 46  1  0  0  0  0
 21 47  1  0  0  0  0
M  END
> <id>
EN300-310900

> <smiles>
CC(C)(C)OC(=O)N1CCC(CC1)C2=NC=3C=C(N)C=CC3N2

> <MDLNUMBER>
MFCD30749925

> <IUPAC Name>
tert-butyl 4-(5-amino-1H-1,3-benzodiazol-2-yl)piperidine-1-carboxylate

> <CAS>
2094920-12-2

> <Purity>
95

> <URL>
https://www.enaminestore.com/catalog/EN300-310900

> <ROCS_ShapeQuery>
_x0404_0B

> <ROCS_TanimotoCombo>
0.430 

> <ROCS_ShapeTanimoto>
0.367 

> <ROCS_ColorTanimoto>
0.062 

> <ROCS_RefTversky>
0.323 

> <ROCS_RefColorTversky>
0.070 

> <ROCS_RefTverskyCombo>
0.392 

> <ROCS_FitTversky>
1.608 

> <ROCS_FitColorTversky>
0.378 

> <ROCS_FitTverskyCombo>
1.986 

> <ROCS_ColorScore>
-5.029

> <ROCS_Overlap>
2153.522

> <ROCS_Rank>
438                 

$$$$
untitled-dbase-171737_763
  -OEChem-08222312023D

 47 47  0     1  0  0  0  0  0999 V2000
   -8.2249    7.7907  -13.0144 C   0  0  0  0  0  0  0  0  0  0  0  0
   -8.9431    5.0624   -9.0073 C   0  0  0  0  0  0  0  0  0  0  0  0
   -8.5783    5.3680  -15.1423 C   0  0  0  0  0  0  0  0  0  0  0  0
   -8.3477    6.7122  -10.7815 C   0  0  0  0  0  0  0  0  0  0  0  0
   -9.0650    4.5198  -11.4738 C   0  0  0  0  0  0  0  0  0  0  0  0
   -8.0507    6.5383  -12.2716 C   0  0  1  0  0  0  0  0  0  0  0  0
   -9.0583    5.4529  -12.6830 C   0  0  1  0  0  0  0  0  0  0  0  0
  -10.9432    3.3124   -7.9555 C   0  0  0  0  0  0  0  0  0  0  0  0
   -9.0732    1.6657   -7.6382 C   0  0  0  0  0  0  0  0  0  0  0  0
   -9.0322    3.8565   -6.4106 C   0  0  0  0  0  0  0  0  0  0  0  0
   -6.9856    6.0340  -17.4159 C   0  0  0  0  0  0  0  0  0  0  0  0
   -7.6469    3.7808  -18.3073 C   0  0  0  0  0  0  0  0  0  0  0  0
   -9.4061    5.5208  -17.8766 C   0  0  0  0  0  0  0  0  0  0  0  0
   -9.4464    3.1454   -7.6981 C   0  0  0  0  0  0  0  0  0  0  0  0
   -8.0638    4.9514  -17.4196 C   0  0  0  0  0  0  0  0  0  0  0  0
   -8.3627    8.7815  -13.6022 N   0  0  0  0  0  0  0  0  0  0  0  0
   -8.8024    5.4011  -10.3421 N   0  0  0  0  0  0  0  0  0  0  0  0
   -8.6849    4.7573  -13.9048 N   0  0  0  0  0  0  0  0  0  0  0  0
   -9.2248    5.8627   -8.1182 O   0  0  0  0  0  0  0  0  0  0  0  0
   -8.7812    6.5565  -15.3683 O   0  0  0  0  0  0  0  0  0  0  0  0
   -8.7282    3.7275   -8.7917 O   0  0  0  0  0  0  0  0  0  0  0  0
   -8.2113    4.4505  -16.0861 O   0  0  0  0  0  0  0  0  0  0  0  0
   -7.4698    7.0239  -10.2059 H   0  0  0  0  0  0  0  0  0  0  0  0
   -9.1572    7.4260  -10.5871 H   0  0  0  0  0  0  0  0  0  0  0  0
  -10.0171    3.9961  -11.3454 H   0  0  0  0  0  0  0  0  0  0  0  0
   -8.2535    3.7836  -11.5077 H   0  0  0  0  0  0  0  0  0  0  0  0
   -7.0244    6.1692  -12.3902 H   0  0  0  0  0  0  0  0  0  0  0  0
  -10.0518    5.8715  -12.8459 H   0  0  0  0  0  0  0  0  0  0  0  0
  -11.2152    4.3731   -7.9992 H   0  0  0  0  0  0  0  0  0  0  0  0
  -11.2467    2.8367   -8.8938 H   0  0  0  0  0  0  0  0  0  0  0  0
  -11.5313    2.8758   -7.1401 H   0  0  0  0  0  0  0  0  0  0  0  0
   -8.0000    1.5412   -7.4537 H   0  0  0  0  0  0  0  0  0  0  0  0
   -9.2813    1.1717   -8.5942 H   0  0  0  0  0  0  0  0  0  0  0  0
   -9.6235    1.1418   -6.8501 H   0  0  0  0  0  0  0  0  0  0  0  0
   -7.9586    3.7368   -6.2258 H   0  0  0  0  0  0  0  0  0  0  0  0
   -9.2589    4.9269   -6.4503 H   0  0  0  0  0  0  0  0  0  0  0  0
   -9.5453    3.4238   -5.5441 H   0  0  0  0  0  0  0  0  0  0  0  0
   -7.2810    6.8761  -16.7799 H   0  0  0  0  0  0  0  0  0  0  0  0
   -6.0264    5.6469  -17.0569 H   0  0  0  0  0  0  0  0  0  0  0  0
   -6.8389    6.4432  -18.4220 H   0  0  0  0  0  0  0  0  0  0  0  0
   -8.4177    3.0016  -18.3129 H   0  0  0  0  0  0  0  0  0  0  0  0
   -6.7336    3.3087  -17.9274 H   0  0  0  0  0  0  0  0  0  0  0  0
   -7.4689    4.0997  -19.3393 H   0  0  0  0  0  0  0  0  0  0  0  0
  -10.1797    4.7445  -17.8793 H   0  0  0  0  0  0  0  0  0  0  0  0
   -9.7391    6.3382  -17.2287 H   0  0  0  0  0  0  0  0  0  0  0  0
   -9.3407    5.8958  -18.9044 H   0  0  0  0  0  0  0  0  0  0  0  0
   -8.4896    3.7582  -13.8459 H   0  0  0  0  0  0  0  0  0  0  0  0
  1  6  1  0  0  0  0
  1 16  3  0  0  0  0
  2 17  1  0  0  0  0
  2 19  2  0  0  0  0
  2 21  1  0  0  0  0
  3 18  1  0  0  0  0
  3 20  2  0  0  0  0
  3 22  1  0  0  0  0
  4  6  1  0  0  0  0
  4 17  1  0  0  0  0
  5  7  1  0  0  0  0
  5 17  1  0  0  0  0
  6  7  1  0  0  0  0
  7 18  1  0  0  0  0
  8 14  1  0  0  0  0
  9 14  1  0  0  0  0
 10 14  1  0  0  0  0
 11 15  1  0  0  0  0
 12 15  1  0  0  0  0
 13 15  1  0  0  0  0
 14 21  1  0  0  0  0
 15 22  1  0  0  0  0
  4 23  1  0  0  0  0
  4 24  1  0  0  0  0
  5 25  1  0  0  0  0
  5 26  1  0  0  0  0
  6 27  1  0  0  0  0
  7 28  1  0  0  0  0
  8 29  1  0  0  0  0
  8 30  1  0  0  0  0
  8 31  1  0  0  0  0
  9 32  1  0  0  0  0
  9 33  1  0  0  0  0
  9 34  1  0  0  0  0
 10 35  1  0  0  0  0
 10 36  1  0  0  0  0
 10 37  1  0  0  0  0
 11 38  1  0  0  0  0
 11 39  1  0  0  0  0
 11 40  1  0  0  0  0
 12 41  1  0  0  0  0
 12 42  1  0  0  0  0
 12 43  1  0  0  0  0
 13 44  1  0  0  0  0
 13 45  1  0  0  0  0
 13 46  1  0  0  0  0
 18 47  1  0  0  0  0
M  END
> <id>
EN300-7230308

> <smiles>
CC(C)(C)OC(=O)NC1CN(CC1C#N)C(=O)OC(C)(C)C

> <MDLNUMBER>
MFCD32763232

> <IUPAC Name>
tert-butyl 3-{[(tert-butoxy)carbonyl]amino}-4-cyanopyrrolidine-1-carboxylate

> <CAS>
1780622-40-3

> <URL>
https://www.enaminestore.com/catalog/EN300-7230308

> <ROCS_ShapeQuery>
_x0404_0B

> <ROCS_TanimotoCombo>
0.430 

> <ROCS_ShapeTanimoto>
0.354 

> <ROCS_ColorTanimoto>
0.075 

> <ROCS_RefTversky>
0.311 

> <ROCS_RefColorTversky>
0.080 

> <ROCS_RefTverskyCombo>
0.391 

> <ROCS_FitTversky>
1.650 

> <ROCS_FitColorTversky>
0.556 

> <ROCS_FitTverskyCombo>
2.206 

> <ROCS_ColorScore>
-5.797

> <ROCS_Overlap>
2073.971

> <ROCS_Rank>
439                 

$$$$
untitled-dbase-83254_4
  -OEChem-08222312023D

 47 51  0     0  0  0  0  0  0999 V2000
   -8.8065    6.4993   -8.4292 C   0  0  0  0  0  0  0  0  0  0  0  0
   -8.6669    5.1441   -8.1419 C   0  0  0  0  0  0  0  0  0  0  0  0
   -8.8850    6.9267   -9.7541 C   0  0  0  0  0  0  0  0  0  0  0  0
   -8.6002    4.2145   -9.1796 C   0  0  0  0  0  0  0  0  0  0  0  0
   -8.8336    5.9987  -10.8030 C   0  0  0  0  0  0  0  0  0  0  0  0
   -8.6746    4.6317  -10.5165 C   0  0  0  0  0  0  0  0  0  0  0  0
   -8.1031    3.4981  -14.0960 C   0  0  0  0  0  0  0  0  0  0  0  0
   -8.8942    6.4726  -12.2305 C   0  0  0  0  0  0  0  0  0  0  0  0
   -8.5910    3.5983  -11.6138 C   0  0  0  0  0  0  0  0  0  0  0  0
   -7.0001    5.4396  -17.7961 C   0  0  0  0  0  0  0  0  0  0  0  0
   -9.2233    4.3480  -18.1930 C   0  0  0  0  0  0  0  0  0  0  0  0
   -9.1035    6.5511  -17.0007 C   0  0  0  0  0  0  0  0  0  0  0  0
   -7.6202    3.3618  -16.5360 C   0  0  0  0  0  0  0  0  0  0  0  0
   -7.5002    5.5687  -15.3418 C   0  0  0  0  0  0  0  0  0  0  0  0
   -9.7260    4.4746  -15.7386 C   0  0  0  0  0  0  0  0  0  0  0  0
   -9.4063    5.3738  -13.1534 C   0  0  0  0  0  0  0  0  0  0  0  0
   -7.7376    4.0924  -17.8850 C   0  0  0  0  0  0  0  0  0  0  0  0
   -7.6170    6.3081  -16.6861 C   0  0  0  0  0  0  0  0  0  0  0  0
   -9.8528    5.2098  -17.0846 C   0  0  0  0  0  0  0  0  0  0  0  0
   -8.2411    4.2186  -15.4146 C   0  0  0  0  0  0  0  0  0  0  0  0
   -8.6274    4.1488  -12.9765 N   0  0  0  0  0  0  0  0  0  0  0  0
   -7.5540    2.3941  -14.0641 O   0  0  0  0  0  0  0  0  0  0  0  0
   -8.8526    7.2239   -7.6215 H   0  0  0  0  0  0  0  0  0  0  0  0
   -8.6061    4.8108   -7.1100 H   0  0  0  0  0  0  0  0  0  0  0  0
   -8.9893    7.9881   -9.9646 H   0  0  0  0  0  0  0  0  0  0  0  0
   -8.4857    3.1599   -8.9411 H   0  0  0  0  0  0  0  0  0  0  0  0
   -9.5626    7.3381  -12.3098 H   0  0  0  0  0  0  0  0  0  0  0  0
   -7.8923    6.7923  -12.5415 H   0  0  0  0  0  0  0  0  0  0  0  0
   -7.6728    3.0191  -11.4786 H   0  0  0  0  0  0  0  0  0  0  0  0
   -9.4455    2.9161  -11.5310 H   0  0  0  0  0  0  0  0  0  0  0  0
   -5.9357    5.2709  -17.5914 H   0  0  0  0  0  0  0  0  0  0  0  0
   -7.0609    5.9633  -18.7579 H   0  0  0  0  0  0  0  0  0  0  0  0
   -9.3230    4.8529  -19.1617 H   0  0  0  0  0  0  0  0  0  0  0  0
   -9.7583    3.3939  -18.2746 H   0  0  0  0  0  0  0  0  0  0  0  0
   -9.5523    7.1829  -16.2243 H   0  0  0  0  0  0  0  0  0  0  0  0
   -9.2013    7.0945  -17.9486 H   0  0  0  0  0  0  0  0  0  0  0  0
   -8.1217    2.3867  -16.5932 H   0  0  0  0  0  0  0  0  0  0  0  0
   -6.5649    3.1513  -16.3174 H   0  0  0  0  0  0  0  0  0  0  0  0
   -6.4422    5.4124  -15.0934 H   0  0  0  0  0  0  0  0  0  0  0  0
   -7.9154    6.1886  -14.5363 H   0  0  0  0  0  0  0  0  0  0  0  0
  -10.1943    5.0691  -14.9431 H   0  0  0  0  0  0  0  0  0  0  0  0
  -10.2777    3.5262  -15.7783 H   0  0  0  0  0  0  0  0  0  0  0  0
  -10.4516    5.1275  -12.9280 H   0  0  0  0  0  0  0  0  0  0  0  0
   -9.3695    5.7160  -14.1926 H   0  0  0  0  0  0  0  0  0  0  0  0
   -7.2951    3.4795  -18.6779 H   0  0  0  0  0  0  0  0  0  0  0  0
   -7.0891    7.2664  -16.6289 H   0  0  0  0  0  0  0  0  0  0  0  0
  -10.9097    5.3894  -17.3101 H   0  0  0  0  0  0  0  0  0  0  0  0
  1  2  2  0  0  0  0
  1  3  1  0  0  0  0
  2  4  1  0  0  0  0
  3  5  2  0  0  0  0
  4  6  2  0  0  0  0
  5  6  1  0  0  0  0
  5  8  1  0  0  0  0
  6  9  1  0  0  0  0
  7 20  1  0  0  0  0
  7 21  1  0  0  0  0
  7 22  2  0  0  0  0
  8 16  1  0  0  0  0
  9 21  1  0  0  0  0
 10 17  1  0  0  0  0
 10 18  1  0  0  0  0
 11 17  1  0  0  0  0
 11 19  1  0  0  0  0
 12 18  1  0  0  0  0
 12 19  1  0  0  0  0
 13 17  1  0  0  0  0
 13 20  1  0  0  0  0
 14 18  1  0  0  0  0
 14 20  1  0  0  0  0
 15 19  1  0  0  0  0
 15 20  1  0  0  0  0
 16 21  1  0  0  0  0
  1 23  1  0  0  0  0
  2 24  1  0  0  0  0
  3 25  1  0  0  0  0
  4 26  1  0  0  0  0
  8 27  1  0  0  0  0
  8 28  1  0  0  0  0
  9 29  1  0  0  0  0
  9 30  1  0  0  0  0
 10 31  1  0  0  0  0
 10 32  1  0  0  0  0
 11 33  1  0  0  0  0
 11 34  1  0  0  0  0
 12 35  1  0  0  0  0
 12 36  1  0  0  0  0
 13 37  1  0  0  0  0
 13 38  1  0  0  0  0
 14 39  1  0  0  0  0
 14 40  1  0  0  0  0
 15 41  1  0  0  0  0
 15 42  1  0  0  0  0
 16 43  1  0  0  0  0
 16 44  1  0  0  0  0
 17 45  1  0  0  0  0
 18 46  1  0  0  0  0
 19 47  1  0  0  0  0
M  END
> <id>
EN300-26867574

> <smiles>
O=C(N1CCC=2C=CC=CC2C1)C3(CC4CC5CC(C4)C3)C5

> <IUPAC Name>
2-(adamantane-1-carbonyl)-1,2,3,4-tetrahydroisoquinoline

> <CAS>
429629-42-5

> <URL>
https://www.enaminestore.com/catalog/EN300-26867574

> <ROCS_ShapeQuery>
_x0404_0B

> <ROCS_TanimotoCombo>
0.430 

> <ROCS_ShapeTanimoto>
0.335 

> <ROCS_ColorTanimoto>
0.095 

> <ROCS_RefTversky>
0.300 

> <ROCS_RefColorTversky>
0.102 

> <ROCS_RefTverskyCombo>
0.402 

> <ROCS_FitTversky>
1.523 

> <ROCS_FitColorTversky>
0.578 

> <ROCS_FitTverskyCombo>
2.101 

> <ROCS_ColorScore>
-7.383

> <ROCS_Overlap>
2003.313

> <ROCS_Rank>
440                 

$$$$
untitled-dbase-90370_358
  -OEChem-08222312023D

 43 45  0     1  0  0  0  0  0999 V2000
   -7.9380    1.0316   -7.6742 C   0  0  0  0  0  0  0  0  0  0  0  0
   -7.2511    0.2641   -8.6240 C   0  0  0  0  0  0  0  0  0  0  0  0
   -7.7268    1.8826  -10.3853 C   0  0  0  0  0  0  0  0  0  0  0  0
   -8.5222    2.2356   -8.0938 C   0  0  0  0  0  0  0  0  0  0  0  0
   -8.4038    2.6258   -9.4206 C   0  0  0  0  0  0  0  0  0  0  0  0
   -7.1486    0.6836   -9.9539 C   0  0  0  0  0  0  0  0  0  0  0  0
   -8.2226    5.3824  -14.1263 C   0  0  0  0  0  0  0  0  0  0  0  0
   -8.7067    6.1435  -10.5414 C   0  0  0  0  0  0  0  0  0  0  0  0
   -8.6858    6.6320  -11.9820 C   0  0  0  0  0  0  0  0  0  0  0  0
   -8.6681    4.2286  -11.9605 C   0  0  0  0  0  0  0  0  0  0  0  0
   -9.2929    4.7232  -10.6472 C   0  0  1  0  0  0  0  0  0  0  0  0
   -6.4772    4.6411  -16.2649 C   0  0  0  0  0  0  0  0  0  0  0  0
   -7.7244    2.4609  -16.2817 C   0  0  0  0  0  0  0  0  0  0  0  0
   -8.9390    4.6004  -16.7871 C   0  0  0  0  0  0  0  0  0  0  0  0
   -7.8128    3.9554  -15.9806 C   0  0  0  0  0  0  0  0  0  0  0  0
   -9.2414    3.1766   -7.4055 N   0  0  0  0  0  0  0  0  0  0  0  0
   -9.5768    4.1412   -8.2553 N   0  0  0  0  0  0  0  0  0  0  0  0
   -9.0767    3.8128   -9.4580 N   0  0  0  0  0  0  0  0  0  0  0  0
   -8.5081    5.4241  -12.7722 N   0  0  0  0  0  0  0  0  0  0  0  0
   -6.4468   -0.1189  -10.8828 N   0  0  0  0  0  0  0  0  0  0  0  0
   -8.0831    6.3778  -14.8335 O   0  0  0  0  0  0  0  0  0  0  0  0
   -8.1106    4.0979  -14.5871 O   0  0  0  0  0  0  0  0  0  0  0  0
   -8.0125    0.6983   -6.6443 H   0  0  0  0  0  0  0  0  0  0  0  0
   -6.7940   -0.6718   -8.3094 H   0  0  0  0  0  0  0  0  0  0  0  0
   -7.6534    2.2174  -11.4143 H   0  0  0  0  0  0  0  0  0  0  0  0
   -7.6872    6.1159  -10.1352 H   0  0  0  0  0  0  0  0  0  0  0  0
   -9.3096    6.7883   -9.8938 H   0  0  0  0  0  0  0  0  0  0  0  0
   -9.6437    7.0784  -12.2694 H   0  0  0  0  0  0  0  0  0  0  0  0
   -7.8863    7.3503  -12.1832 H   0  0  0  0  0  0  0  0  0  0  0  0
   -7.6760    3.7846  -11.8130 H   0  0  0  0  0  0  0  0  0  0  0  0
   -9.3017    3.4966  -12.4728 H   0  0  0  0  0  0  0  0  0  0  0  0
  -10.4073    4.7783  -10.7588 H   0  0  0  0  0  0  0  0  0  0  0  0
   -6.5365    5.7141  -16.0500 H   0  0  0  0  0  0  0  0  0  0  0  0
   -5.6675    4.2109  -15.6666 H   0  0  0  0  0  0  0  0  0  0  0  0
   -6.2098    4.5524  -17.3241 H   0  0  0  0  0  0  0  0  0  0  0  0
   -8.6805    1.9648  -16.0791 H   0  0  0  0  0  0  0  0  0  0  0  0
   -6.9824    1.9760  -15.6370 H   0  0  0  0  0  0  0  0  0  0  0  0
   -7.4515    2.2745  -17.3254 H   0  0  0  0  0  0  0  0  0  0  0  0
   -9.8971    4.1087  -16.5833 H   0  0  0  0  0  0  0  0  0  0  0  0
   -9.0413    5.6657  -16.5564 H   0  0  0  0  0  0  0  0  0  0  0  0
   -8.7589    4.4928  -17.8629 H   0  0  0  0  0  0  0  0  0  0  0  0
   -5.9957   -0.9495  -10.5617 H   0  0  0  0  0  0  0  0  0  0  0  0
   -6.3368    0.2085  -11.8193 H   0  0  0  0  0  0  0  0  0  0  0  0
  1  2  1  0  0  0  0
  1  4  2  0  0  0  0
  2  6  2  0  0  0  0
  3  5  2  0  0  0  0
  3  6  1  0  0  0  0
  4  5  1  0  0  0  0
  4 16  1  0  0  0  0
  5 18  1  0  0  0  0
  6 20  1  0  0  0  0
  7 19  1  0  0  0  0
  7 21  2  0  0  0  0
  7 22  1  0  0  0  0
  8  9  1  0  0  0  0
  8 11  1  0  0  0  0
  9 19  1  0  0  0  0
 10 11  1  0  0  0  0
 10 19  1  0  0  0  0
 11 18  1  0  0  0  0
 12 15  1  0  0  0  0
 13 15  1  0  0  0  0
 14 15  1  0  0  0  0
 15 22  1  0  0  0  0
 16 17  2  0  0  0  0
 17 18  1  0  0  0  0
  1 23  1  0  0  0  0
  2 24  1  0  0  0  0
  3 25  1  0  0  0  0
  8 26  1  0  0  0  0
  8 27  1  0  0  0  0
  9 28  1  0  0  0  0
  9 29  1  0  0  0  0
 10 30  1  0  0  0  0
 10 31  1  0  0  0  0
 11 32  1  0  0  0  0
 12 33  1  0  0  0  0
 12 34  1  0  0  0  0
 12 35  1  0  0  0  0
 13 36  1  0  0  0  0
 13 37  1  0  0  0  0
 13 38  1  0  0  0  0
 14 39  1  0  0  0  0
 14 40  1  0  0  0  0
 14 41  1  0  0  0  0
 20 42  1  0  0  0  0
 20 43  1  0  0  0  0
M  END
> <id>
EN300-6750368

> <smiles>
CC(C)(C)OC(=O)N1CCC(C1)N2N=NC=3C=CC(N)=CC23

> <IUPAC Name>
tert-butyl 3-(6-amino-1H-1,2,3-benzotriazol-1-yl)pyrrolidine-1-carboxylate

> <CAS>
2287310-05-6

> <URL>
https://www.enaminestore.com/catalog/EN300-6750368

> <ROCS_ShapeQuery>
_x0404_0B

> <ROCS_TanimotoCombo>
0.430 

> <ROCS_ShapeTanimoto>
0.280 

> <ROCS_ColorTanimoto>
0.149 

> <ROCS_RefTversky>
0.262 

> <ROCS_RefColorTversky>
0.153 

> <ROCS_RefTverskyCombo>
0.414 

> <ROCS_FitTversky>
1.338 

> <ROCS_FitColorTversky>
0.871 

> <ROCS_FitTverskyCombo>
2.209 

> <ROCS_ColorScore>
-11.046

> <ROCS_Overlap>
1746.620

> <ROCS_Rank>
441                 

$$$$
untitled-dbase-118781_191
  -OEChem-08222312023D

 53 55  0     0  0  0  0  0  0999 V2000
   -8.7106    4.8072  -16.2562 B   0  0  0  0  0  0  0  0  0  0  0  0
   -8.7394    3.4554  -14.0680 C   0  0  0  0  0  0  0  0  0  0  0  0
   -8.7578    3.3455  -12.6742 C   0  0  0  0  0  0  0  0  0  0  0  0
   -8.7413    5.8789  -13.9237 C   0  0  0  0  0  0  0  0  0  0  0  0
   -8.7313    4.7126  -14.6888 C   0  0  0  0  0  0  0  0  0  0  0  0
   -8.7594    5.7615  -12.5425 C   0  0  0  0  0  0  0  0  0  0  0  0
   -8.7676    4.5106  -11.9221 C   0  0  0  0  0  0  0  0  0  0  0  0
   -8.7990    3.6573   -9.5759 C   0  0  0  0  0  0  0  0  0  0  0  0
   -8.7731    6.8730  -11.5432 C   0  0  0  0  0  0  0  0  0  0  0  0
   -8.7887    6.1126  -10.2128 C   0  0  0  0  0  0  0  0  0  0  0  0
   -9.4361    4.7272  -18.4270 C   0  0  0  0  0  0  0  0  0  0  0  0
   -7.9289    5.1475  -18.3819 C   0  0  0  0  0  0  0  0  0  0  0  0
  -10.4228    5.8783  -18.7261 C   0  0  0  0  0  0  0  0  0  0  0  0
   -9.7513    3.5744  -19.3904 C   0  0  0  0  0  0  0  0  0  0  0  0
   -7.5907    6.4079  -19.1904 C   0  0  0  0  0  0  0  0  0  0  0  0
   -6.9330    4.0395  -18.7924 C   0  0  0  0  0  0  0  0  0  0  0  0
   -9.4724    2.6115   -6.9972 C   0  0  0  0  0  0  0  0  0  0  0  0
   -8.0926    4.4970   -6.0751 C   0  0  0  0  0  0  0  0  0  0  0  0
  -10.1489    4.9972   -7.4277 C   0  0  0  0  0  0  0  0  0  0  0  0
   -8.9762    4.0373   -7.2328 C   0  0  0  0  0  0  0  0  0  0  0  0
   -8.7859    4.6704  -10.5239 N   0  0  0  0  0  0  0  0  0  0  0  0
   -9.2955    2.5437   -9.7196 O   0  0  0  0  0  0  0  0  0  0  0  0
   -9.7125    4.2695  -17.0640 O   0  0  0  0  0  0  0  0  0  0  0  0
   -7.6887    5.4367  -16.9669 O   0  0  0  0  0  0  0  0  0  0  0  0
   -8.1741    4.0504   -8.4193 O   0  0  0  0  0  0  0  0  0  0  0  0
   -8.7320    2.5374  -14.6543 H   0  0  0  0  0  0  0  0  0  0  0  0
   -8.7636    2.3598  -12.2253 H   0  0  0  0  0  0  0  0  0  0  0  0
   -8.7353    6.8668  -14.3774 H   0  0  0  0  0  0  0  0  0  0  0  0
   -7.8755    7.4921  -11.6350 H   0  0  0  0  0  0  0  0  0  0  0  0
   -9.6700    7.4894  -11.6571 H   0  0  0  0  0  0  0  0  0  0  0  0
   -7.9088    6.3449   -9.6018 H   0  0  0  0  0  0  0  0  0  0  0  0
   -9.6814    6.3464   -9.6216 H   0  0  0  0  0  0  0  0  0  0  0  0
  -11.4309    5.4832  -18.7347 H   0  0  0  0  0  0  0  0  0  0  0  0
  -10.1833    6.3037  -19.6926 H   0  0  0  0  0  0  0  0  0  0  0  0
  -10.3267    6.6323  -17.9550 H   0  0  0  0  0  0  0  0  0  0  0  0
  -10.8142    3.3539  -19.3543 H   0  0  0  0  0  0  0  0  0  0  0  0
   -9.1878    2.6937  -19.0964 H   0  0  0  0  0  0  0  0  0  0  0  0
   -9.4744    3.8620  -20.4005 H   0  0  0  0  0  0  0  0  0  0  0  0
   -6.5294    6.6208  -19.1004 H   0  0  0  0  0  0  0  0  0  0  0  0
   -8.1629    7.2474  -18.8068 H   0  0  0  0  0  0  0  0  0  0  0  0
   -7.8408    6.2449  -20.2348 H   0  0  0  0  0  0  0  0  0  0  0  0
   -5.9257    4.4313  -18.7270 H   0  0  0  0  0  0  0  0  0  0  0  0
   -7.1468    3.7346  -19.8090 H   0  0  0  0  0  0  0  0  0  0  0  0
   -7.0478    3.1980  -18.1207 H   0  0  0  0  0  0  0  0  0  0  0  0
  -10.1071    2.2778   -7.8260 H   0  0  0  0  0  0  0  0  0  0  0  0
   -8.6408    1.9073   -6.8907 H   0  0  0  0  0  0  0  0  0  0  0  0
  -10.0901    2.5568   -6.0934 H   0  0  0  0  0  0  0  0  0  0  0  0
   -7.7342    5.5195   -6.2400 H   0  0  0  0  0  0  0  0  0  0  0  0
   -7.1998    3.8668   -5.9914 H   0  0  0  0  0  0  0  0  0  0  0  0
   -8.6287    4.4671   -5.1211 H   0  0  0  0  0  0  0  0  0  0  0  0
   -9.7932    6.0200   -7.5967 H   0  0  0  0  0  0  0  0  0  0  0  0
  -10.7735    4.7036   -8.2776 H   0  0  0  0  0  0  0  0  0  0  0  0
  -10.7768    5.0326   -6.5300 H   0  0  0  0  0  0  0  0  0  0  0  0
  1  5  1  0  0  0  0
  1 23  1  0  0  0  0
  1 24  1  0  0  0  0
  2  3  1  0  0  0  0
  2  5  2  0  0  0  0
  3  7  2  0  0  0  0
  4  5  1  0  0  0  0
  4  6  2  0  0  0  0
  6  7  1  0  0  0  0
  6  9  1  0  0  0  0
  7 21  1  0  0  0  0
  8 21  1  0  0  0  0
  8 22  2  0  0  0  0
  8 25  1  0  0  0  0
  9 10  1  0  0  0  0
 10 21  1  0  0  0  0
 11 12  1  0  0  0  0
 11 13  1  0  0  0  0
 11 14  1  0  0  0  0
 11 23  1  0  0  0  0
 12 15  1  0  0  0  0
 12 16  1  0  0  0  0
 12 24  1  0  0  0  0
 17 20  1  0  0  0  0
 18 20  1  0  0  0  0
 19 20  1  0  0  0  0
 20 25  1  0  0  0  0
  2 26  1  0  0  0  0
  3 27  1  0  0  0  0
  4 28  1  0  0  0  0
  9 29  1  0  0  0  0
  9 30  1  0  0  0  0
 10 31  1  0  0  0  0
 10 32  1  0  0  0  0
 13 33  1  0  0  0  0
 13 34  1  0  0  0  0
 13 35  1  0  0  0  0
 14 36  1  0  0  0  0
 14 37  1  0  0  0  0
 14 38  1  0  0  0  0
 15 39  1  0  0  0  0
 15 40  1  0  0  0  0
 15 41  1  0  0  0  0
 16 42  1  0  0  0  0
 16 43  1  0  0  0  0
 16 44  1  0  0  0  0
 17 45  1  0  0  0  0
 17 46  1  0  0  0  0
 17 47  1  0  0  0  0
 18 48  1  0  0  0  0
 18 49  1  0  0  0  0
 18 50  1  0  0  0  0
 19 51  1  0  0  0  0
 19 52  1  0  0  0  0
 19 53  1  0  0  0  0
M  END
> <id>
EN300-398637

> <smiles>
CC(C)(C)OC(=O)N1CCC=2C=C(C=CC12)B3OC(C)(C)C(C)(C)O3

> <MDLNUMBER>
MFCD12408237

> <IUPAC Name>
tert-butyl 5-(tetramethyl-1,3,2-dioxaborolan-2-yl)-2,3-dihydro-1H-indole-1-carboxylate

> <CAS>
837392-67-3

> <Purity>
95

> <URL>
https://www.enaminestore.com/catalog/EN300-398637

> <ROCS_ShapeQuery>
_x0404_0B

> <ROCS_TanimotoCombo>
0.430 

> <ROCS_ShapeTanimoto>
0.388 

> <ROCS_ColorTanimoto>
0.041 

> <ROCS_RefTversky>
0.339 

> <ROCS_RefColorTversky>
0.045 

> <ROCS_RefTverskyCombo>
0.384 

> <ROCS_FitTversky>
1.598 

> <ROCS_FitColorTversky>
0.312 

> <ROCS_FitTverskyCombo>
1.910 

> <ROCS_ColorScore>
-3.260

> <ROCS_Overlap>
2266.098

> <ROCS_Rank>
442                 

$$$$
untitled-dbase-4557_482
  -OEChem-08222312023D

 44 45  0     1  0  0  0  0  0999 V2000
   -9.3318    4.6096  -17.6517 C   0  0  0  0  0  0  0  0  0  0  0  0
   -9.5933    4.4990  -16.2861 C   0  0  0  0  0  0  0  0  0  0  0  0
   -8.0503    4.9409  -18.0919 C   0  0  0  0  0  0  0  0  0  0  0  0
   -7.2918    5.0513  -15.8007 C   0  0  0  0  0  0  0  0  0  0  0  0
   -8.5733    4.7199  -15.3606 C   0  0  0  0  0  0  0  0  0  0  0  0
   -7.0304    5.1618  -17.1664 C   0  0  0  0  0  0  0  0  0  0  0  0
   -8.0576    3.4914  -13.2138 C   0  0  0  0  0  0  0  0  0  0  0  0
   -8.6885    4.5719   -9.5943 C   0  0  0  0  0  0  0  0  0  0  0  0
   -7.8275    3.5654  -11.7164 C   0  0  0  0  0  0  0  0  0  0  0  0
   -8.5814    5.9062  -13.1369 C   0  0  0  0  0  0  0  0  0  0  0  0
   -9.0424    5.7948  -11.6940 C   0  0  0  0  0  0  0  0  0  0  0  0
   -8.8581    4.5980  -13.8758 C   0  0  1  0  0  0  0  0  0  0  0  0
  -10.9660    3.5208   -8.2190 C   0  0  0  0  0  0  0  0  0  0  0  0
   -9.4686    1.6067   -7.5837 C   0  0  0  0  0  0  0  0  0  0  0  0
   -8.9220    3.9326   -6.8094 C   0  0  0  0  0  0  0  0  0  0  0  0
   -5.6603    5.5167  -17.6372 C   0  0  0  0  0  0  0  0  0  0  0  0
   -9.5275    3.0923   -7.9328 C   0  0  0  0  0  0  0  0  0  0  0  0
   -8.5283    4.6240  -10.9883 N   0  0  0  0  0  0  0  0  0  0  0  0
   -7.6008    2.5410  -13.8534 O   0  0  0  0  0  0  0  0  0  0  0  0
   -8.7611    5.5639   -8.8709 O   0  0  0  0  0  0  0  0  0  0  0  0
   -8.7492    3.2879   -9.1189 O   0  0  0  0  0  0  0  0  0  0  0  0
   -5.5506    5.5901  -18.9967 F   0  0  0  0  0  0  0  0  0  0  0  0
   -5.2210    6.7260  -17.1788 F   0  0  0  0  0  0  0  0  0  0  0  0
   -4.7185    4.6113  -17.2422 F   0  0  0  0  0  0  0  0  0  0  0  0
  -10.1261    4.4374  -18.3723 H   0  0  0  0  0  0  0  0  0  0  0  0
  -10.5948    4.2399  -15.9524 H   0  0  0  0  0  0  0  0  0  0  0  0
   -7.8558    5.0256  -19.1578 H   0  0  0  0  0  0  0  0  0  0  0  0
   -6.4960    5.2226  -15.0797 H   0  0  0  0  0  0  0  0  0  0  0  0
   -8.1566    2.6069  -11.2760 H   0  0  0  0  0  0  0  0  0  0  0  0
   -6.7398    3.6503  -11.5446 H   0  0  0  0  0  0  0  0  0  0  0  0
   -9.1083    6.7328  -13.6262 H   0  0  0  0  0  0  0  0  0  0  0  0
   -7.5126    6.1516  -13.1616 H   0  0  0  0  0  0  0  0  0  0  0  0
   -8.7627    6.7207  -11.1471 H   0  0  0  0  0  0  0  0  0  0  0  0
  -10.1526    5.7479  -11.6374 H   0  0  0  0  0  0  0  0  0  0  0  0
   -9.9176    4.3312  -13.7542 H   0  0  0  0  0  0  0  0  0  0  0  0
  -11.0125    4.5865   -8.4700 H   0  0  0  0  0  0  0  0  0  0  0  0
  -11.4001    2.9495   -9.0460 H   0  0  0  0  0  0  0  0  0  0  0  0
  -11.5982    3.3837   -7.3343 H   0  0  0  0  0  0  0  0  0  0  0  0
   -8.4383    1.2949   -7.3775 H   0  0  0  0  0  0  0  0  0  0  0  0
   -9.8141    0.9942   -8.4244 H   0  0  0  0  0  0  0  0  0  0  0  0
  -10.0834    1.3727   -6.7085 H   0  0  0  0  0  0  0  0  0  0  0  0
   -7.8902    3.6255   -6.6039 H   0  0  0  0  0  0  0  0  0  0  0  0
   -8.9221    4.9988   -7.0583 H   0  0  0  0  0  0  0  0  0  0  0  0
   -9.4780    3.7931   -5.8753 H   0  0  0  0  0  0  0  0  0  0  0  0
  1  2  1  0  0  0  0
  1  3  2  0  0  0  0
  2  5  2  0  0  0  0
  3  6  1  0  0  0  0
  4  5  1  0  0  0  0
  4  6  2  0  0  0  0
  5 12  1  0  0  0  0
  6 16  1  0  0  0  0
  7  9  1  0  0  0  0
  7 12  1  0  0  0  0
  7 19  2  0  0  0  0
  8 18  1  0  0  0  0
  8 20  2  0  0  0  0
  8 21  1  0  0  0  0
  9 18  1  0  0  0  0
 10 11  1  0  0  0  0
 10 12  1  0  0  0  0
 11 18  1  0  0  0  0
 13 17  1  0  0  0  0
 14 17  1  0  0  0  0
 15 17  1  0  0  0  0
 16 22  1  0  0  0  0
 16 23  1  0  0  0  0
 16 24  1  0  0  0  0
 17 21  1  0  0  0  0
  1 25  1  0  0  0  0
  2 26  1  0  0  0  0
  3 27  1  0  0  0  0
  4 28  1  0  0  0  0
  9 29  1  0  0  0  0
  9 30  1  0  0  0  0
 10 31  1  0  0  0  0
 10 32  1  0  0  0  0
 11 33  1  0  0  0  0
 11 34  1  0  0  0  0
 12 35  1  0  0  0  0
 13 36  1  0  0  0  0
 13 37  1  0  0  0  0
 13 38  1  0  0  0  0
 14 39  1  0  0  0  0
 14 40  1  0  0  0  0
 14 41  1  0  0  0  0
 15 42  1  0  0  0  0
 15 43  1  0  0  0  0
 15 44  1  0  0  0  0
M  END
> <id>
EN300-94525

> <smiles>
CC(C)(C)OC(=O)N1CCC(C(=O)C1)C=2C=CC=C(C2)C(F)(F)F

> <MDLNUMBER>
MFCD20502177

> <IUPAC Name>
tert-butyl 3-oxo-4-[3-(trifluoromethyl)phenyl]piperidine-1-carboxylate

> <CAS>
1354951-38-4

> <Purity>
95

> <URL>
https://www.enaminestore.com/catalog/EN300-94525

> <ROCS_ShapeQuery>
_x0404_0B

> <ROCS_TanimotoCombo>
0.430 

> <ROCS_ShapeTanimoto>
0.379 

> <ROCS_ColorTanimoto>
0.051 

> <ROCS_RefTversky>
0.331 

> <ROCS_RefColorTversky>
0.054 

> <ROCS_RefTverskyCombo>
0.385 

> <ROCS_FitTversky>
1.616 

> <ROCS_FitColorTversky>
0.456 

> <ROCS_FitTverskyCombo>
2.072 

> <ROCS_ColorScore>
-3.890

> <ROCS_Overlap>
2210.795

> <ROCS_Rank>
443                 

$$$$
untitled-dbase-122923_4
  -OEChem-08222312023D

 60 65  0     1  0  0  0  0  0999 V2000
   -9.4672    5.0389   -8.3707 C   0  0  0  0  0  0  0  0  0  0  0  0
   -8.9270    5.1559   -9.5954 C   0  0  0  0  0  0  0  0  0  0  0  0
   -9.5401    3.7329   -7.6769 C   0  0  0  0  0  0  0  0  0  0  0  0
   -8.2778    5.7299  -18.2551 C   0  0  0  0  0  0  0  0  0  0  0  0
   -9.0261    7.9744  -12.1707 C   0  0  0  0  0  0  0  0  0  0  0  0
   -8.7884    6.5294  -10.2134 C   0  0  0  0  0  0  0  0  0  0  0  0
   -8.9059    2.5378   -8.3367 C   0  0  0  0  0  0  0  0  0  0  0  0
   -9.0104    4.4735  -18.6147 C   0  0  0  0  0  0  0  0  0  0  0  0
   -9.0124    2.6461   -9.8510 C   0  0  0  0  0  0  0  0  0  0  0  0
   -8.9584    3.6971  -17.3186 C   0  0  0  0  0  0  0  0  0  0  0  0
  -10.3061    5.8194  -14.4733 C   0  0  0  0  0  0  0  0  0  0  0  0
  -10.3725    5.3269  -15.9275 C   0  0  0  0  0  0  0  0  0  0  0  0
   -8.8954    3.0861  -14.3606 C   0  0  0  0  0  0  0  0  0  0  0  0
   -9.2848    6.5852  -11.6649 C   0  0  2  0  0  0  0  0  0  0  0  0
   -8.8468    5.6342  -14.0365 C   0  0  1  0  0  0  0  0  0  0  0  0
   -8.5597    5.5293  -12.5218 C   0  0  2  0  0  0  0  0  0  0  0  0
   -8.8868    2.9625  -12.8721 C   0  0  1  0  0  0  0  0  0  0  0  0
   -8.4237    3.9695  -10.4320 C   0  0  1  0  0  0  0  0  0  0  0  0
   -8.3469    4.4351  -14.8825 C   0  0  2  0  0  0  0  0  0  0  0  0
   -8.9639    4.7902  -16.2647 C   0  0  1  0  0  0  0  0  0  0  0  0
   -8.7989    4.1498  -11.9293 C   0  0  1  0  0  0  0  0  0  0  0  0
   -6.8803    3.9036  -10.3263 C   0  0  0  0  0  0  0  0  0  0  0  0
   -6.8084    4.3864  -14.9061 C   0  0  0  0  0  0  0  0  0  0  0  0
   -9.3190    9.3745  -14.0516 C   0  0  0  0  0  0  0  0  0  0  0  0
  -10.0519    3.6607   -6.5614 O   0  0  0  0  0  0  0  0  0  0  0  0
   -7.8185    6.5365  -19.0484 O   0  0  0  0  0  0  0  0  0  0  0  0
   -8.4722    8.8490  -11.5185 O   0  0  0  0  0  0  0  0  0  0  0  0
   -8.2263    5.8609  -16.8945 O   0  0  0  0  0  0  0  0  0  0  0  0
  -10.0559    3.5602  -12.2798 O   0  0  0  0  0  0  0  0  0  0  0  0
   -9.5004    8.0917  -13.4436 O   0  0  0  0  0  0  0  0  0  0  0  0
   -9.8244    5.9020   -7.8187 H   0  0  0  0  0  0  0  0  0  0  0  0
   -9.3288    7.2818   -9.6232 H   0  0  0  0  0  0  0  0  0  0  0  0
   -7.7309    6.8238  -10.1687 H   0  0  0  0  0  0  0  0  0  0  0  0
   -7.8668    2.4602   -8.0029 H   0  0  0  0  0  0  0  0  0  0  0  0
   -9.4359    1.6377   -8.0055 H   0  0  0  0  0  0  0  0  0  0  0  0
  -10.0358    4.7241  -18.9005 H   0  0  0  0  0  0  0  0  0  0  0  0
   -8.5038    3.9394  -19.4217 H   0  0  0  0  0  0  0  0  0  0  0  0
   -8.5193    1.7747  -10.2983 H   0  0  0  0  0  0  0  0  0  0  0  0
  -10.0771    2.5640  -10.1074 H   0  0  0  0  0  0  0  0  0  0  0  0
   -9.7803    2.9813  -17.2246 H   0  0  0  0  0  0  0  0  0  0  0  0
   -8.0199    3.1310  -17.2857 H   0  0  0  0  0  0  0  0  0  0  0  0
  -10.6107    6.8693  -14.4061 H   0  0  0  0  0  0  0  0  0  0  0  0
  -11.0046    5.2445  -13.8585 H   0  0  0  0  0  0  0  0  0  0  0  0
  -11.1326    4.5409  -16.0017 H   0  0  0  0  0  0  0  0  0  0  0  0
  -10.6735    6.1466  -16.5893 H   0  0  0  0  0  0  0  0  0  0  0  0
   -8.3097    2.2620  -14.7878 H   0  0  0  0  0  0  0  0  0  0  0  0
   -9.9231    2.9138  -14.7032 H   0  0  0  0  0  0  0  0  0  0  0  0
  -10.3687    6.4178  -11.6839 H   0  0  0  0  0  0  0  0  0  0  0  0
   -8.3153    6.5344  -14.3834 H   0  0  0  0  0  0  0  0  0  0  0  0
   -7.4812    5.7200  -12.4311 H   0  0  0  0  0  0  0  0  0  0  0  0
   -8.6148    1.9717  -12.5387 H   0  0  0  0  0  0  0  0  0  0  0  0
   -6.5264    3.0682  -10.9155 H   0  0  0  0  0  0  0  0  0  0  0  0
   -6.6081    3.7694   -9.2880 H   0  0  0  0  0  0  0  0  0  0  0  0
   -6.4658    4.8287  -10.7041 H   0  0  0  0  0  0  0  0  0  0  0  0
   -6.4269    5.3334  -15.2724 H   0  0  0  0  0  0  0  0  0  0  0  0
   -6.4868    3.5840  -15.5613 H   0  0  0  0  0  0  0  0  0  0  0  0
   -6.4416    4.2079  -13.9010 H   0  0  0  0  0  0  0  0  0  0  0  0
   -9.7317    9.3606  -15.0634 H   0  0  0  0  0  0  0  0  0  0  0  0
   -8.2536    9.6157  -14.0844 H   0  0  0  0  0  0  0  0  0  0  0  0
   -9.8428   10.1268  -13.4572 H   0  0  0  0  0  0  0  0  0  0  0  0
  1  2  2  0  0  0  0
  1  3  1  0  0  0  0
  2  6  1  0  0  0  0
  2 18  1  0  0  0  0
  3  7  1  0  0  0  0
  3 25  2  0  0  0  0
  4  8  1  0  0  0  0
  4 26  2  0  0  0  0
  4 28  1  0  0  0  0
  5 14  1  0  0  0  0
  5 27  2  0  0  0  0
  5 30  1  0  0  0  0
  6 14  1  0  0  0  0
  7  9  1  0  0  0  0
  8 10  1  0  0  0  0
  9 18  1  0  0  0  0
 10 20  1  0  0  0  0
 11 12  1  0  0  0  0
 11 15  1  0  0  0  0
 12 20  1  0  0  0  0
 13 17  1  0  0  0  0
 13 19  1  0  0  0  0
 14 16  1  0  0  0  0
 15 16  1  0  0  0  0
 15 19  1  0  0  0  0
 16 21  1  0  0  0  0
 17 21  1  0  0  0  0
 17 29  1  0  0  0  0
 18 21  1  0  0  0  0
 18 22  1  0  0  0  0
 19 20  1  0  0  0  0
 19 23  1  0  0  0  0
 20 28  1  0  0  0  0
 21 29  1  0  0  0  0
 24 30  1  0  0  0  0
  1 31  1  0  0  0  0
  6 32  1  0  0  0  0
  6 33  1  0  0  0  0
  7 34  1  0  0  0  0
  7 35  1  0  0  0  0
  8 36  1  0  0  0  0
  8 37  1  0  0  0  0
  9 38  1  0  0  0  0
  9 39  1  0  0  0  0
 10 40  1  0  0  0  0
 10 41  1  0  0  0  0
 11 42  1  0  0  0  0
 11 43  1  0  0  0  0
 12 44  1  0  0  0  0
 12 45  1  0  0  0  0
 13 46  1  0  0  0  0
 13 47  1  0  0  0  0
 14 48  1  0  0  0  0
 15 49  1  0  0  0  0
 16 50  1  0  0  0  0
 17 51  1  0  0  0  0
 22 52  1  0  0  0  0
 22 53  1  0  0  0  0
 22 54  1  0  0  0  0
 23 55  1  0  0  0  0
 23 56  1  0  0  0  0
 23 57  1  0  0  0  0
 24 58  1  0  0  0  0
 24 59  1  0  0  0  0
 24 60  1  0  0  0  0
M  END
> <id>
EN300-717933

> <smiles>
COC(=O)C1CC2=CC(=O)CCC2(C)C34OC4CC5(C)C(CCC65CCC(=O)O6)C13

> <MDLNUMBER>
MFCD31439699

> <IUPAC Name>
methyl 2',15'-dimethyl-5,5'-dioxo-18'-oxaspiro[oxolane-2,14'-pentacyclo[8.8.0.0^{1,17}.0^{2,7}.0^{11,15}]octadecan]-6'-ene-9'-carboxylate

> <CAS>
107724-20-9

> <URL>
https://www.enaminestore.com/catalog/EN300-717933

> <ROCS_ShapeQuery>
_x0404_0B

> <ROCS_TanimotoCombo>
0.429 

> <ROCS_ShapeTanimoto>
0.383 

> <ROCS_ColorTanimoto>
0.047 

> <ROCS_RefTversky>
0.346 

> <ROCS_RefColorTversky>
0.054 

> <ROCS_RefTverskyCombo>
0.400 

> <ROCS_FitTversky>
1.390 

> <ROCS_FitColorTversky>
0.259 

> <ROCS_FitTverskyCombo>
1.649 

> <ROCS_ColorScore>
-3.906

> <ROCS_Overlap>
2313.340

> <ROCS_Rank>
444                 

$$$$
untitled-dbase-104771_1
  -OEChem-08222312023D

 33 34  0     0  0  0  0  0  0999 V2000
   -8.6166    6.6698  -10.8987 C   0  0  0  0  0  0  0  0  0  0  0  0
   -8.6039    6.2600  -12.2360 C   0  0  0  0  0  0  0  0  0  0  0  0
   -8.9309    3.9344  -11.5980 C   0  0  0  0  0  0  0  0  0  0  0  0
   -8.9461    4.3304  -10.2502 C   0  0  0  0  0  0  0  0  0  0  0  0
   -8.7903    5.6753   -9.9336 C   0  0  0  0  0  0  0  0  0  0  0  0
   -8.7582    4.9162  -12.5818 C   0  0  0  0  0  0  0  0  0  0  0  0
   -9.0881    3.6909   -8.9999 C   0  0  0  0  0  0  0  0  0  0  0  0
   -8.5827    5.3530  -15.0494 C   0  0  0  0  0  0  0  0  0  0  0  0
   -7.1235    5.9716  -17.4301 C   0  0  0  0  0  0  0  0  0  0  0  0
   -8.5496    4.2251  -18.5370 C   0  0  0  0  0  0  0  0  0  0  0  0
   -9.6186    6.2758  -17.5574 C   0  0  0  0  0  0  0  0  0  0  0  0
   -8.4792    5.2668  -17.4225 C   0  0  0  0  0  0  0  0  0  0  0  0
   -9.0299    4.5417   -7.9730 N   0  0  0  0  0  0  0  0  0  0  0  0
   -8.8495    5.7330   -8.5673 N   0  0  0  0  0  0  0  0  0  0  0  0
   -8.7402    4.5442  -13.9273 N   0  0  0  0  0  0  0  0  0  0  0  0
   -8.4276    6.5679  -15.0704 O   0  0  0  0  0  0  0  0  0  0  0  0
   -9.2668    2.3873   -8.7440 O   0  0  0  0  0  0  0  0  0  0  0  0
   -8.6268    4.5761  -16.1764 O   0  0  0  0  0  0  0  0  0  0  0  0
   -8.4975    7.7131  -10.6283 H   0  0  0  0  0  0  0  0  0  0  0  0
   -8.4703    7.0118  -13.0113 H   0  0  0  0  0  0  0  0  0  0  0  0
   -9.0511    2.8889  -11.8679 H   0  0  0  0  0  0  0  0  0  0  0  0
   -7.0690    6.7201  -16.6315 H   0  0  0  0  0  0  0  0  0  0  0  0
   -6.2995    5.2626  -17.2990 H   0  0  0  0  0  0  0  0  0  0  0  0
   -6.9688    6.5117  -18.3711 H   0  0  0  0  0  0  0  0  0  0  0  0
   -9.5206    3.7169  -18.5353 H   0  0  0  0  0  0  0  0  0  0  0  0
   -7.7930    3.4456  -18.3911 H   0  0  0  0  0  0  0  0  0  0  0  0
   -8.3964    4.6768  -19.5224 H   0  0  0  0  0  0  0  0  0  0  0  0
  -10.5912    5.7705  -17.5520 H   0  0  0  0  0  0  0  0  0  0  0  0
   -9.6059    7.0096  -16.7449 H   0  0  0  0  0  0  0  0  0  0  0  0
   -9.5538    6.8115  -18.5114 H   0  0  0  0  0  0  0  0  0  0  0  0
   -8.7724    6.5535   -7.9793 H   0  0  0  0  0  0  0  0  0  0  0  0
   -8.8585    3.5433  -14.1136 H   0  0  0  0  0  0  0  0  0  0  0  0
   -9.3349    2.2182   -7.7833 H   0  0  0  0  0  0  0  0  0  0  0  0
  1  2  1  0  0  0  0
  1  5  2  0  0  0  0
  2  6  2  0  0  0  0
  3  4  2  0  0  0  0
  3  6  1  0  0  0  0
  4  5  1  0  0  0  0
  4  7  1  0  0  0  0
  5 14  1  0  0  0  0
  6 15  1  0  0  0  0
  7 13  2  0  0  0  0
  7 17  1  0  0  0  0
  8 15  1  0  0  0  0
  8 16  2  0  0  0  0
  8 18  1  0  0  0  0
  9 12  1  0  0  0  0
 10 12  1  0  0  0  0
 11 12  1  0  0  0  0
 12 18  1  0  0  0  0
 13 14  1  0  0  0  0
  1 19  1  0  0  0  0
  2 20  1  0  0  0  0
  3 21  1  0  0  0  0
  9 22  1  0  0  0  0
  9 23  1  0  0  0  0
  9 24  1  0  0  0  0
 10 25  1  0  0  0  0
 10 26  1  0  0  0  0
 10 27  1  0  0  0  0
 11 28  1  0  0  0  0
 11 29  1  0  0  0  0
 11 30  1  0  0  0  0
 14 31  1  0  0  0  0
 15 32  1  0  0  0  0
 17 33  1  0  0  0  0
M  END
> <id>
EN300-26665296

> <smiles>
CC(C)(C)OC(=O)NC=1C=CC=2NN=C(O)C2C1

> <IUPAC Name>
tert-butyl N-(3-hydroxy-1H-indazol-5-yl)carbamate

> <CAS>
2413876-89-6

> <URL>
https://www.enaminestore.com/catalog/EN300-26665296

> <ROCS_ShapeQuery>
_x0404_0B

> <ROCS_TanimotoCombo>
0.429 

> <ROCS_ShapeTanimoto>
0.335 

> <ROCS_ColorTanimoto>
0.095 

> <ROCS_RefTversky>
0.293 

> <ROCS_RefColorTversky>
0.101 

> <ROCS_RefTverskyCombo>
0.394 

> <ROCS_FitTversky>
1.729 

> <ROCS_FitColorTversky>
0.591 

> <ROCS_FitTverskyCombo>
2.321 

> <ROCS_ColorScore>
-7.308

> <ROCS_Overlap>
1955.249

> <ROCS_Rank>
445                 

$$$$
untitled-dbase-28462_1
  -OEChem-08222312023D

 54 56  0     1  0  0  0  0  0999 V2000
   -8.2296    5.0048  -14.2438 C   0  0  0  0  0  0  0  0  0  0  0  0
   -8.7047    3.3112   -6.6214 C   0  0  0  0  0  0  0  0  0  0  0  0
  -10.1818    3.3547   -7.0149 C   0  0  0  0  0  0  0  0  0  0  0  0
   -9.5157    6.4573  -11.0908 C   0  0  0  0  0  0  0  0  0  0  0  0
   -7.5611    3.9209   -8.8317 C   0  0  0  0  0  0  0  0  0  0  0  0
  -10.0351    3.9986   -9.4912 C   0  0  0  0  0  0  0  0  0  0  0  0
   -9.2270    6.6220  -12.5784 C   0  0  0  0  0  0  0  0  0  0  0  0
   -8.1604    4.6121  -11.7788 C   0  0  0  0  0  0  0  0  0  0  0  0
   -7.9889    2.7891   -7.8705 C   0  0  2  0  0  0  0  0  0  0  0  0
  -10.2090    2.8577   -8.4631 C   0  0  1  0  0  0  0  0  0  0  0  0
   -8.3730    5.5571  -10.5892 C   0  0  2  0  0  0  0  0  0  0  0  0
   -8.7347    4.8128   -9.3010 C   0  0  0  0  0  0  0  0  0  0  0  0
   -9.0878    4.2589  -16.8660 C   0  0  0  0  0  0  0  0  0  0  0  0
   -8.9853    6.7118  -17.3972 C   0  0  0  0  0  0  0  0  0  0  0  0
   -6.8955    5.4878  -16.7319 C   0  0  0  0  0  0  0  0  0  0  0  0
   -9.2047    0.6730   -8.0189 C   0  0  0  0  0  0  0  0  0  0  0  0
   -8.4080    5.5878  -16.5395 C   0  0  0  0  0  0  0  0  0  0  0  0
   -8.5264    5.3988  -12.9503 N   0  0  0  0  0  0  0  0  0  0  0  0
   -9.0125    2.0057   -8.5852 N   0  0  0  0  0  0  0  0  0  0  0  0
   -7.1601    6.3554  -10.3764 N   0  0  0  0  0  0  0  0  0  0  0  0
   -7.6371    3.9672  -14.5308 O   0  0  0  0  0  0  0  0  0  0  0  0
   -8.9857    5.8152   -8.3088 O   0  0  0  0  0  0  0  0  0  0  0  0
   -8.6730    5.9108  -15.1698 O   0  0  0  0  0  0  0  0  0  0  0  0
   -8.3336    4.2860   -6.2910 H   0  0  0  0  0  0  0  0  0  0  0  0
   -8.5731    2.6147   -5.7845 H   0  0  0  0  0  0  0  0  0  0  0  0
  -10.7503    2.6783   -6.3654 H   0  0  0  0  0  0  0  0  0  0  0  0
  -10.6128    4.3537   -6.8976 H   0  0  0  0  0  0  0  0  0  0  0  0
   -9.4759    7.4440  -10.6089 H   0  0  0  0  0  0  0  0  0  0  0  0
  -10.5102    6.0354  -10.9063 H   0  0  0  0  0  0  0  0  0  0  0  0
   -6.7992    4.5367   -8.3369 H   0  0  0  0  0  0  0  0  0  0  0  0
   -7.0819    3.4568   -9.7047 H   0  0  0  0  0  0  0  0  0  0  0  0
  -10.0409    3.5501  -10.4940 H   0  0  0  0  0  0  0  0  0  0  0  0
  -10.9074    4.6620   -9.4334 H   0  0  0  0  0  0  0  0  0  0  0  0
  -10.1461    6.6799  -13.1700 H   0  0  0  0  0  0  0  0  0  0  0  0
   -8.6117    7.4994  -12.7952 H   0  0  0  0  0  0  0  0  0  0  0  0
   -7.1060    4.3328  -11.9062 H   0  0  0  0  0  0  0  0  0  0  0  0
   -8.7515    3.6898  -11.7299 H   0  0  0  0  0  0  0  0  0  0  0  0
   -7.1044    2.1949   -7.6134 H   0  0  0  0  0  0  0  0  0  0  0  0
  -11.1363    2.3196   -8.6902 H   0  0  0  0  0  0  0  0  0  0  0  0
   -8.6762    3.4496  -16.2524 H   0  0  0  0  0  0  0  0  0  0  0  0
  -10.1687    4.3069  -16.6986 H   0  0  0  0  0  0  0  0  0  0  0  0
   -8.9115    3.9756  -17.9100 H   0  0  0  0  0  0  0  0  0  0  0  0
   -8.5005    7.6672  -17.1663 H   0  0  0  0  0  0  0  0  0  0  0  0
  -10.0531    6.8501  -17.1922 H   0  0  0  0  0  0  0  0  0  0  0  0
   -8.8608    6.5092  -18.4658 H   0  0  0  0  0  0  0  0  0  0  0  0
   -6.4076    6.4410  -16.4978 H   0  0  0  0  0  0  0  0  0  0  0  0
   -6.4586    4.7107  -16.0964 H   0  0  0  0  0  0  0  0  0  0  0  0
   -6.6495    5.2629  -17.7760 H   0  0  0  0  0  0  0  0  0  0  0  0
   -9.9770    0.1385   -8.5915 H   0  0  0  0  0  0  0  0  0  0  0  0
   -8.2588    0.1137   -8.0685 H   0  0  0  0  0  0  0  0  0  0  0  0
   -9.5229    0.7630   -6.9697 H   0  0  0  0  0  0  0  0  0  0  0  0
   -6.9056    6.7718  -11.2409 H   0  0  0  0  0  0  0  0  0  0  0  0
   -7.3614    7.0519   -9.6981 H   0  0  0  0  0  0  0  0  0  0  0  0
   -8.1671    6.3249   -8.2283 H   0  0  0  0  0  0  0  0  0  0  0  0
  1 18  1  0  0  0  0
  1 21  2  0  0  0  0
  1 23  1  0  0  0  0
  2  3  1  0  0  0  0
  2  9  1  0  0  0  0
  3 10  1  0  0  0  0
  4  7  1  0  0  0  0
  4 11  1  0  0  0  0
  5  9  1  0  0  0  0
  5 12  1  0  0  0  0
  6 10  1  0  0  0  0
  6 12  1  0  0  0  0
  7 18  1  0  0  0  0
  8 11  1  0  0  0  0
  8 18  1  0  0  0  0
  9 19  1  0  0  0  0
 10 19  1  0  0  0  0
 11 12  1  0  0  0  0
 11 20  1  0  0  0  0
 12 22  1  0  0  0  0
 13 17  1  0  0  0  0
 14 17  1  0  0  0  0
 15 17  1  0  0  0  0
 16 19  1  0  0  0  0
 17 23  1  0  0  0  0
  2 24  1  0  0  0  0
  2 25  1  0  0  0  0
  3 26  1  0  0  0  0
  3 27  1  0  0  0  0
  4 28  1  0  0  0  0
  4 29  1  0  0  0  0
  5 30  1  0  0  0  0
  5 31  1  0  0  0  0
  6 32  1  0  0  0  0
  6 33  1  0  0  0  0
  7 34  1  0  0  0  0
  7 35  1  0  0  0  0
  8 36  1  0  0  0  0
  8 37  1  0  0  0  0
  9 38  1  0  0  0  0
 10 39  1  0  0  0  0
 13 40  1  0  0  0  0
 13 41  1  0  0  0  0
 13 42  1  0  0  0  0
 14 43  1  0  0  0  0
 14 44  1  0  0  0  0
 14 45  1  0  0  0  0
 15 46  1  0  0  0  0
 15 47  1  0  0  0  0
 15 48  1  0  0  0  0
 16 49  1  0  0  0  0
 16 50  1  0  0  0  0
 16 51  1  0  0  0  0
 20 52  1  0  0  0  0
 20 53  1  0  0  0  0
 22 54  1  0  0  0  0
M  END
> <id>
EN300-1643293

> <smiles>
CN1C2CCC1CC(O)(C2)C3(N)CCN(C3)C(=O)OC(C)(C)C

> <IUPAC Name>
tert-butyl 3-amino-3-{3-hydroxy-8-methyl-8-azabicyclo[3.2.1]octan-3-yl}pyrrolidine-1-carboxylate

> <CAS>
2171652-54-1

> <URL>
https://www.enaminestore.com/catalog/EN300-1643293

> <ROCS_ShapeQuery>
_x0404_0B

> <ROCS_TanimotoCombo>
0.429 

> <ROCS_ShapeTanimoto>
0.336 

> <ROCS_ColorTanimoto>
0.093 

> <ROCS_RefTversky>
0.302 

> <ROCS_RefColorTversky>
0.105 

> <ROCS_RefTverskyCombo>
0.407 

> <ROCS_FitTversky>
1.514 

> <ROCS_FitColorTversky>
0.450 

> <ROCS_FitTverskyCombo>
1.965 

> <ROCS_ColorScore>
-7.606

> <ROCS_Overlap>
2014.712

> <ROCS_Rank>
446                 

$$$$
untitled-dbase-21026_3
  -OEChem-08222312023D

 34 37  0     0  0  0  0  0  0999 V2000
   -8.5262    5.2427  -18.9058 C   0  0  0  0  0  0  0  0  0  0  0  0
   -9.5127    4.3619  -18.4723 C   0  0  0  0  0  0  0  0  0  0  0  0
   -7.7428    5.9268  -17.9759 C   0  0  0  0  0  0  0  0  0  0  0  0
   -9.7194    4.1617  -17.1071 C   0  0  0  0  0  0  0  0  0  0  0  0
   -7.1578    6.4176  -15.6479 C   0  0  0  0  0  0  0  0  0  0  0  0
   -7.3646    6.2175  -14.2828 C   0  0  0  0  0  0  0  0  0  0  0  0
   -8.4825    2.3598   -9.9287 C   0  0  0  0  0  0  0  0  0  0  0  0
   -8.7069    2.1615   -8.5632 C   0  0  0  0  0  0  0  0  0  0  0  0
   -9.1345    4.6526  -14.7791 C   0  0  0  0  0  0  0  0  0  0  0  0
   -9.2418    4.5025   -8.2966 C   0  0  0  0  0  0  0  0  0  0  0  0
   -7.9371    5.7375  -16.5979 C   0  0  0  0  0  0  0  0  0  0  0  0
   -8.9402    4.8418  -16.1570 C   0  0  0  0  0  0  0  0  0  0  0  0
   -8.3510    5.3367  -13.8492 C   0  0  0  0  0  0  0  0  0  0  0  0
   -8.6365    3.6320  -10.4849 C   0  0  0  0  0  0  0  0  0  0  0  0
   -9.0143    4.6839   -9.6593 C   0  0  0  0  0  0  0  0  0  0  0  0
   -9.0858    3.2311   -7.7491 C   0  0  0  0  0  0  0  0  0  0  0  0
   -8.4192    3.8924  -11.8985 C   0  0  0  0  0  0  0  0  0  0  0  0
   -8.5677    5.1259  -12.4056 C   0  0  0  0  0  0  0  0  0  0  0  0
   -8.9634    6.2635  -11.5305 C   0  0  0  0  0  0  0  0  0  0  0  0
   -9.0903    7.4047  -11.9630 O   0  0  0  0  0  0  0  0  0  0  0  0
   -9.1779    5.9791  -10.1844 O   0  0  0  0  0  0  0  0  0  0  0  0
   -9.3012    3.0301   -6.4203 O   0  0  0  0  0  0  0  0  0  0  0  0
   -8.3661    5.3989  -19.9685 H   0  0  0  0  0  0  0  0  0  0  0  0
  -10.1221    3.8293  -19.1964 H   0  0  0  0  0  0  0  0  0  0  0  0
   -6.9780    6.6110  -18.3373 H   0  0  0  0  0  0  0  0  0  0  0  0
  -10.4965    3.4688  -16.7914 H   0  0  0  0  0  0  0  0  0  0  0  0
   -6.3816    7.1111  -15.9642 H   0  0  0  0  0  0  0  0  0  0  0  0
   -6.7463    6.7579  -13.5699 H   0  0  0  0  0  0  0  0  0  0  0  0
   -8.1882    1.5140  -10.5451 H   0  0  0  0  0  0  0  0  0  0  0  0
   -8.5845    1.1681   -8.1397 H   0  0  0  0  0  0  0  0  0  0  0  0
   -9.9046    3.9645  -14.4324 H   0  0  0  0  0  0  0  0  0  0  0  0
   -9.5358    5.3396   -7.6701 H   0  0  0  0  0  0  0  0  0  0  0  0
   -8.1307    3.0533  -12.5252 H   0  0  0  0  0  0  0  0  0  0  0  0
   -9.1524    2.0985   -6.1925 H   0  0  0  0  0  0  0  0  0  0  0  0
  1  2  1  0  0  0  0
  1  3  2  0  0  0  0
  2  4  2  0  0  0  0
  3 11  1  0  0  0  0
  4 12  1  0  0  0  0
  5  6  1  0  0  0  0
  5 11  2  0  0  0  0
  6 13  2  0  0  0  0
  7  8  1  0  0  0  0
  7 14  2  0  0  0  0
  8 16  2  0  0  0  0
  9 12  2  0  0  0  0
  9 13  1  0  0  0  0
 10 15  2  0  0  0  0
 10 16  1  0  0  0  0
 11 12  1  0  0  0  0
 13 18  1  0  0  0  0
 14 15  1  0  0  0  0
 14 17  1  0  0  0  0
 15 21  1  0  0  0  0
 16 22  1  0  0  0  0
 17 18  2  0  0  0  0
 18 19  1  0  0  0  0
 19 20  2  0  0  0  0
 19 21  1  0  0  0  0
  1 23  1  0  0  0  0
  2 24  1  0  0  0  0
  3 25  1  0  0  0  0
  4 26  1  0  0  0  0
  5 27  1  0  0  0  0
  6 28  1  0  0  0  0
  7 29  1  0  0  0  0
  8 30  1  0  0  0  0
  9 31  1  0  0  0  0
 10 32  1  0  0  0  0
 17 33  1  0  0  0  0
 22 34  1  0  0  0  0
M  END
> <id>
EN300-303189

> <smiles>
OC=1C=CC=2C=C(C=3C=CC=4C=CC=CC4C3)C(=O)OC2C1

> <MDLNUMBER>
MFCD09880990

> <IUPAC Name>
7-hydroxy-3-(naphthalen-2-yl)-2H-chromen-2-one

> <CAS>
245329-26-4

> <URL>
https://www.enaminestore.com/catalog/EN300-303189

> <ROCS_ShapeQuery>
_x0404_0B

> <ROCS_TanimotoCombo>
0.429 

> <ROCS_ShapeTanimoto>
0.376 

> <ROCS_ColorTanimoto>
0.053 

> <ROCS_RefTversky>
0.328 

> <ROCS_RefColorTversky>
0.058 

> <ROCS_RefTverskyCombo>
0.386 

> <ROCS_FitTversky>
1.643 

> <ROCS_FitColorTversky>
0.402 

> <ROCS_FitTverskyCombo>
2.044 

> <ROCS_ColorScore>
-4.192

> <ROCS_Overlap>
2186.879

> <ROCS_Rank>
447                 

$$$$
untitled-dbase-92071_549
  -OEChem-08222312023D

 52 54  0     1  0  0  0  0  0999 V2000
  -10.0974    4.6538  -16.9962 C   0  0  0  0  0  0  0  0  0  0  0  0
  -10.0353    4.0530  -18.2432 C   0  0  0  0  0  0  0  0  0  0  0  0
   -7.7690    4.3974  -18.3953 C   0  0  0  0  0  0  0  0  0  0  0  0
   -8.9157    5.1411  -16.4490 C   0  0  0  0  0  0  0  0  0  0  0  0
   -7.7249    5.0145  -17.1556 C   0  0  0  0  0  0  0  0  0  0  0  0
   -9.3342    3.2106   -9.5590 C   0  0  0  0  0  0  0  0  0  0  0  0
   -8.3454    6.6888  -10.4218 C   0  0  0  0  0  0  0  0  0  0  0  0
  -10.3574    5.8653  -14.4310 C   0  0  0  0  0  0  0  0  0  0  0  0
   -7.8027    6.3204  -11.8029 C   0  0  0  0  0  0  0  0  0  0  0  0
  -10.0758    6.1853  -12.9666 C   0  0  0  0  0  0  0  0  0  0  0  0
   -8.1431    5.0771  -14.0021 C   0  0  0  0  0  0  0  0  0  0  0  0
   -9.3777    5.7112   -9.8678 C   0  0  0  0  0  0  0  0  0  0  0  0
   -9.0327    4.1536  -11.8125 C   0  0  0  0  0  0  0  0  0  0  0  0
   -8.9721    5.8011  -15.0836 C   0  0  1  0  0  0  0  0  0  0  0  0
   -8.7651    5.4426  -12.6212 C   0  0  1  0  0  0  0  0  0  0  0  0
   -8.1725    1.2132   -7.8716 C   0  0  0  0  0  0  0  0  0  0  0  0
   -8.6451    2.7991   -5.9820 C   0  0  0  0  0  0  0  0  0  0  0  0
  -10.5436    1.8645   -7.3348 C   0  0  0  0  0  0  0  0  0  0  0  0
   -9.0877    2.3272   -7.3653 C   0  0  0  0  0  0  0  0  0  0  0  0
   -8.8975    3.9117  -18.9594 N   0  0  0  0  0  0  0  0  0  0  0  0
   -9.2095    4.3476  -10.3698 N   0  0  0  0  0  0  0  0  0  0  0  0
   -9.7210    2.1161   -9.9663 O   0  0  0  0  0  0  0  0  0  0  0  0
   -8.4740    7.1291  -15.2712 O   0  0  0  0  0  0  0  0  0  0  0  0
   -8.9825    3.4436   -8.2562 O   0  0  0  0  0  0  0  0  0  0  0  0
   -6.0752    5.6479  -16.4872 Br  0  0  0  0  0  0  0  0  0  0  0  0
  -11.0432    4.7365  -16.4714 H   0  0  0  0  0  0  0  0  0  0  0  0
  -10.9291    3.6566  -18.7137 H   0  0  0  0  0  0  0  0  0  0  0  0
   -6.8758    4.2661  -18.9989 H   0  0  0  0  0  0  0  0  0  0  0  0
   -7.5057    6.7764   -9.7021 H   0  0  0  0  0  0  0  0  0  0  0  0
   -8.7917    7.7027  -10.4656 H   0  0  0  0  0  0  0  0  0  0  0  0
  -10.8849    4.9037  -14.5072 H   0  0  0  0  0  0  0  0  0  0  0  0
  -10.9972    6.6363  -14.8800 H   0  0  0  0  0  0  0  0  0  0  0  0
   -7.5976    7.2508  -12.3568 H   0  0  0  0  0  0  0  0  0  0  0  0
   -6.8298    5.8186  -11.6853 H   0  0  0  0  0  0  0  0  0  0  0  0
   -9.9525    7.2729  -12.8442 H   0  0  0  0  0  0  0  0  0  0  0  0
  -10.9158    5.8900  -12.3211 H   0  0  0  0  0  0  0  0  0  0  0  0
   -8.1590    3.9906  -14.1549 H   0  0  0  0  0  0  0  0  0  0  0  0
   -7.0926    5.3889  -14.0609 H   0  0  0  0  0  0  0  0  0  0  0  0
   -9.3466    5.7246   -8.7638 H   0  0  0  0  0  0  0  0  0  0  0  0
  -10.3971    6.0342  -10.1488 H   0  0  0  0  0  0  0  0  0  0  0  0
   -9.9658    3.6633  -12.1714 H   0  0  0  0  0  0  0  0  0  0  0  0
   -8.2352    3.4038  -12.0078 H   0  0  0  0  0  0  0  0  0  0  0  0
   -8.4869    0.8716   -8.8643 H   0  0  0  0  0  0  0  0  0  0  0  0
   -7.1303    1.5433   -7.9314 H   0  0  0  0  0  0  0  0  0  0  0  0
   -8.2212    0.3379   -7.2138 H   0  0  0  0  0  0  0  0  0  0  0  0
   -9.2989    3.5984   -5.6148 H   0  0  0  0  0  0  0  0  0  0  0  0
   -7.6337    3.2199   -6.0183 H   0  0  0  0  0  0  0  0  0  0  0  0
   -8.6545    1.9815   -5.2539 H   0  0  0  0  0  0  0  0  0  0  0  0
  -11.2003    2.6634   -6.9716 H   0  0  0  0  0  0  0  0  0  0  0  0
  -10.8899    1.5568   -8.3267 H   0  0  0  0  0  0  0  0  0  0  0  0
  -10.6705    1.0224   -6.6449 H   0  0  0  0  0  0  0  0  0  0  0  0
   -8.5045    7.5636  -14.4039 H   0  0  0  0  0  0  0  0  0  0  0  0
  1  2  1  0  0  0  0
  1  4  2  0  0  0  0
  2 20  2  0  0  0  0
  3  5  2  0  0  0  0
  3 20  1  0  0  0  0
  4  5  1  0  0  0  0
  4 14  1  0  0  0  0
  5 25  1  0  0  0  0
  6 21  1  0  0  0  0
  6 22  2  0  0  0  0
  6 24  1  0  0  0  0
  7  9  1  0  0  0  0
  7 12  1  0  0  0  0
  8 10  1  0  0  0  0
  8 14  1  0  0  0  0
  9 15  1  0  0  0  0
 10 15  1  0  0  0  0
 11 14  1  0  0  0  0
 11 15  1  0  0  0  0
 12 21  1  0  0  0  0
 13 15  1  0  0  0  0
 13 21  1  0  0  0  0
 14 23  1  0  0  0  0
 16 19  1  0  0  0  0
 17 19  1  0  0  0  0
 18 19  1  0  0  0  0
 19 24  1  0  0  0  0
  1 26  1  0  0  0  0
  2 27  1  0  0  0  0
  3 28  1  0  0  0  0
  7 29  1  0  0  0  0
  7 30  1  0  0  0  0
  8 31  1  0  0  0  0
  8 32  1  0  0  0  0
  9 33  1  0  0  0  0
  9 34  1  0  0  0  0
 10 35  1  0  0  0  0
 10 36  1  0  0  0  0
 11 37  1  0  0  0  0
 11 38  1  0  0  0  0
 12 39  1  0  0  0  0
 12 40  1  0  0  0  0
 13 41  1  0  0  0  0
 13 42  1  0  0  0  0
 16 43  1  0  0  0  0
 16 44  1  0  0  0  0
 16 45  1  0  0  0  0
 17 46  1  0  0  0  0
 17 47  1  0  0  0  0
 17 48  1  0  0  0  0
 18 49  1  0  0  0  0
 18 50  1  0  0  0  0
 18 51  1  0  0  0  0
 23 52  1  0  0  0  0
M  END
> <id>
EN300-7428802

> <smiles>
CC(C)(C)OC(=O)N1CCCC2(CCC(O)(C2)C=3C=CN=CC3Br)C1

> <IUPAC Name>
tert-butyl 2-(3-bromopyridin-4-yl)-2-hydroxy-7-azaspiro[4.5]decane-7-carboxylate

> <CAS>
2309456-90-2

> <URL>
https://www.enaminestore.com/catalog/EN300-7428802

> <ROCS_ShapeQuery>
_x0404_0B

> <ROCS_TanimotoCombo>
0.429 

> <ROCS_ShapeTanimoto>
0.377 

> <ROCS_ColorTanimoto>
0.052 

> <ROCS_RefTversky>
0.331 

> <ROCS_RefColorTversky>
0.058 

> <ROCS_RefTverskyCombo>
0.389 

> <ROCS_FitTversky>
1.582 

> <ROCS_FitColorTversky>
0.338 

> <ROCS_FitTverskyCombo>
1.920 

> <ROCS_ColorScore>
-4.168

> <ROCS_Overlap>
2213.309

> <ROCS_Rank>
448                 

$$$$
untitled-dbase-103542_22
  -OEChem-08222312023D

 35 37  0     0  0  0  0  0  0999 V2000
   -8.9658    6.4095   -9.3156 C   0  0  0  0  0  0  0  0  0  0  0  0
   -9.0728    4.1069  -16.0586 C   0  0  0  0  0  0  0  0  0  0  0  0
   -8.9832    5.8038   -8.0697 C   0  0  0  0  0  0  0  0  0  0  0  0
   -8.0751    4.1997  -15.0946 C   0  0  0  0  0  0  0  0  0  0  0  0
   -8.9813    5.5932  -10.4486 C   0  0  0  0  0  0  0  0  0  0  0  0
   -8.9867    4.2012  -10.2913 C   0  0  0  0  0  0  0  0  0  0  0  0
   -8.9863    4.8717  -17.2166 C   0  0  0  0  0  0  0  0  0  0  0  0
   -7.0200    5.0652  -15.3345 C   0  0  0  0  0  0  0  0  0  0  0  0
   -9.0084    3.7017   -8.9921 C   0  0  0  0  0  0  0  0  0  0  0  0
   -7.8906    5.7072  -17.3614 C   0  0  0  0  0  0  0  0  0  0  0  0
   -8.1645    3.3915  -13.8687 C   0  0  0  0  0  0  0  0  0  0  0  0
   -8.9405    6.2066  -11.8227 C   0  0  0  0  0  0  0  0  0  0  0  0
   -8.9930    3.2625  -11.4669 C   0  0  0  0  0  0  0  0  0  0  0  0
   -9.4654    5.2470  -12.8854 C   0  0  0  0  0  0  0  0  0  0  0  0
   -5.9179    5.2079  -14.3360 C   0  0  0  0  0  0  0  0  0  0  0  0
   -9.0075    4.4676   -7.8781 N   0  0  0  0  0  0  0  0  0  0  0  0
   -6.9016    5.8241  -16.4470 N   0  0  0  0  0  0  0  0  0  0  0  0
   -8.8252    3.9381  -12.7631 N   0  0  0  0  0  0  0  0  0  0  0  0
   -7.6378    2.2804  -13.9086 O   0  0  0  0  0  0  0  0  0  0  0  0
   -9.0308    2.3463   -8.7849 O   0  0  0  0  0  0  0  0  0  0  0  0
  -10.2316    4.7437  -18.3988 Cl  0  0  0  0  0  0  0  0  0  0  0  0
   -7.6506    6.7113  -18.7400 Cl  0  0  0  0  0  0  0  0  0  0  0  0
   -8.9387    7.4908   -9.3997 H   0  0  0  0  0  0  0  0  0  0  0  0
   -9.9159    3.4373  -15.9028 H   0  0  0  0  0  0  0  0  0  0  0  0
   -8.9789    6.3998   -7.1630 H   0  0  0  0  0  0  0  0  0  0  0  0
   -9.5442    7.1222  -11.8160 H   0  0  0  0  0  0  0  0  0  0  0  0
   -7.9110    6.4850  -12.0771 H   0  0  0  0  0  0  0  0  0  0  0  0
   -8.1588    2.5568  -11.3726 H   0  0  0  0  0  0  0  0  0  0  0  0
   -9.9287    2.6948  -11.4709 H   0  0  0  0  0  0  0  0  0  0  0  0
  -10.5537    5.1595  -12.8042 H   0  0  0  0  0  0  0  0  0  0  0  0
   -9.2419    5.6224  -13.8919 H   0  0  0  0  0  0  0  0  0  0  0  0
   -5.1208    4.4853  -14.5451 H   0  0  0  0  0  0  0  0  0  0  0  0
   -5.4902    6.2176  -14.3600 H   0  0  0  0  0  0  0  0  0  0  0  0
   -6.2840    5.0399  -13.3158 H   0  0  0  0  0  0  0  0  0  0  0  0
   -9.0440    2.1617   -7.8358 H   0  0  0  0  0  0  0  0  0  0  0  0
  1  3  1  0  0  0  0
  1  5  2  0  0  0  0
  2  4  2  0  0  0  0
  2  7  1  0  0  0  0
  3 16  2  0  0  0  0
  4  8  1  0  0  0  0
  4 11  1  0  0  0  0
  5  6  1  0  0  0  0
  5 12  1  0  0  0  0
  6  9  2  0  0  0  0
  6 13  1  0  0  0  0
  7 10  2  0  0  0  0
  7 21  1  0  0  0  0
  8 15  1  0  0  0  0
  8 17  2  0  0  0  0
  9 16  1  0  0  0  0
  9 20  1  0  0  0  0
 10 17  1  0  0  0  0
 10 22  1  0  0  0  0
 11 18  1  0  0  0  0
 11 19  2  0  0  0  0
 12 14  1  0  0  0  0
 13 18  1  0  0  0  0
 14 18  1  0  0  0  0
  1 23  1  0  0  0  0
  2 24  1  0  0  0  0
  3 25  1  0  0  0  0
 12 26  1  0  0  0  0
 12 27  1  0  0  0  0
 13 28  1  0  0  0  0
 13 29  1  0  0  0  0
 14 30  1  0  0  0  0
 14 31  1  0  0  0  0
 15 32  1  0  0  0  0
 15 33  1  0  0  0  0
 15 34  1  0  0  0  0
 20 35  1  0  0  0  0
M  END
> <id>
EN300-6653178

> <smiles>
CC=1N=C(Cl)C(Cl)=CC1C(=O)N2CCC=3C=CN=C(O)C3C2

> <IUPAC Name>
7-(5,6-dichloro-2-methylpyridine-3-carbonyl)-5,6,7,8-tetrahydro-2,7-naphthyridin-1-ol

> <CAS>
2224554-98-5

> <URL>
https://www.enaminestore.com/catalog/EN300-6653178

> <ROCS_ShapeQuery>
_x0404_0B

> <ROCS_TanimotoCombo>
0.429 

> <ROCS_ShapeTanimoto>
0.335 

> <ROCS_ColorTanimoto>
0.094 

> <ROCS_RefTversky>
0.299 

> <ROCS_RefColorTversky>
0.100 

> <ROCS_RefTverskyCombo>
0.399 

> <ROCS_FitTversky>
1.549 

> <ROCS_FitColorTversky>
0.631 

> <ROCS_FitTverskyCombo>
2.180 

> <ROCS_ColorScore>
-7.186

> <ROCS_Overlap>
1998.915

> <ROCS_Rank>
449                 

$$$$
untitled-dbase-91008_6142
  -OEChem-08222312023D

 53 55  0     1  0  0  0  0  0999 V2000
   -5.2383    5.9253  -17.8153 C   0  0  0  0  0  0  0  0  0  0  0  0
   -6.0351    6.1789  -16.6990 C   0  0  0  0  0  0  0  0  0  0  0  0
   -5.7694    5.2453  -18.9114 C   0  0  0  0  0  0  0  0  0  0  0  0
   -7.8941    5.0724  -17.7745 C   0  0  0  0  0  0  0  0  0  0  0  0
   -7.3630    5.7524  -16.6785 C   0  0  0  0  0  0  0  0  0  0  0  0
   -7.0973    4.8188  -18.8909 C   0  0  0  0  0  0  0  0  0  0  0  0
   -8.7439    5.1321   -8.7642 C   0  0  0  0  0  0  0  0  0  0  0  0
   -9.3350    5.0046  -15.1799 C   0  0  0  0  0  0  0  0  0  0  0  0
   -9.7530    5.2979  -13.7442 C   0  0  0  0  0  0  0  0  0  0  0  0
   -8.6394    6.7743  -11.9872 C   0  0  0  0  0  0  0  0  0  0  0  0
   -7.8813    4.3966  -12.2575 C   0  0  0  0  0  0  0  0  0  0  0  0
   -7.4487    6.0581  -14.1306 C   0  0  0  0  0  0  0  0  0  0  0  0
   -9.4883    6.3487  -10.7922 C   0  0  0  0  0  0  0  0  0  0  0  0
   -8.7011    4.0081  -11.0259 C   0  0  0  0  0  0  0  0  0  0  0  0
   -8.2292    6.0285  -15.4638 C   0  0  1  0  0  0  0  0  0  0  0  0
   -8.4384    5.6326  -13.0055 C   0  0  0  0  0  0  0  0  0  0  0  0
  -10.2977    3.9961   -7.1191 C   0  0  0  0  0  0  0  0  0  0  0  0
   -9.3331    1.8567   -8.0144 C   0  0  0  0  0  0  0  0  0  0  0  0
   -8.2074    3.0319   -6.1014 C   0  0  0  0  0  0  0  0  0  0  0  0
   -9.0140    3.2117   -7.3866 C   0  0  0  0  0  0  0  0  0  0  0  0
   -8.9340    5.1590  -10.1500 N   0  0  0  0  0  0  0  0  0  0  0  0
   -9.0151    6.0642   -8.0092 O   0  0  0  0  0  0  0  0  0  0  0  0
   -8.8303    7.3078  -15.6962 O   0  0  0  0  0  0  0  0  0  0  0  0
   -8.2188    3.9455   -8.3251 O   0  0  0  0  0  0  0  0  0  0  0  0
   -7.8162    3.8975  -20.3763 Br  0  0  0  0  0  0  0  0  0  0  0  0
   -4.2043    6.2574  -17.8311 H   0  0  0  0  0  0  0  0  0  0  0  0
   -5.6128    6.7094  -15.8497 H   0  0  0  0  0  0  0  0  0  0  0  0
   -5.1349    5.0558  -19.7733 H   0  0  0  0  0  0  0  0  0  0  0  0
   -8.9305    4.7429  -17.7514 H   0  0  0  0  0  0  0  0  0  0  0  0
   -8.9577    3.9764  -15.2547 H   0  0  0  0  0  0  0  0  0  0  0  0
  -10.1869    5.1082  -15.8616 H   0  0  0  0  0  0  0  0  0  0  0  0
  -10.4388    6.1544  -13.7327 H   0  0  0  0  0  0  0  0  0  0  0  0
  -10.2912    4.4519  -13.3041 H   0  0  0  0  0  0  0  0  0  0  0  0
   -9.1298    7.6217  -12.4816 H   0  0  0  0  0  0  0  0  0  0  0  0
   -7.6707    7.1384  -11.6286 H   0  0  0  0  0  0  0  0  0  0  0  0
   -6.8380    4.5683  -11.9563 H   0  0  0  0  0  0  0  0  0  0  0  0
   -7.8613    3.5337  -12.9404 H   0  0  0  0  0  0  0  0  0  0  0  0
   -6.6000    5.3633  -14.1746 H   0  0  0  0  0  0  0  0  0  0  0  0
   -7.0344    7.0585  -13.9540 H   0  0  0  0  0  0  0  0  0  0  0  0
   -9.5250    7.1387  -10.0350 H   0  0  0  0  0  0  0  0  0  0  0  0
  -10.5166    6.1666  -11.1185 H   0  0  0  0  0  0  0  0  0  0  0  0
   -9.6452    3.5570  -11.3498 H   0  0  0  0  0  0  0  0  0  0  0  0
   -8.1778    3.2509  -10.4288 H   0  0  0  0  0  0  0  0  0  0  0  0
  -10.0728    4.9694   -6.6684 H   0  0  0  0  0  0  0  0  0  0  0  0
  -10.8681    4.1621   -8.0388 H   0  0  0  0  0  0  0  0  0  0  0  0
  -10.9385    3.4657   -6.4054 H   0  0  0  0  0  0  0  0  0  0  0  0
   -8.4149    1.2904   -8.2081 H   0  0  0  0  0  0  0  0  0  0  0  0
   -9.8284    1.9826   -8.9840 H   0  0  0  0  0  0  0  0  0  0  0  0
   -9.9817    1.2552   -7.3693 H   0  0  0  0  0  0  0  0  0  0  0  0
   -7.2866    2.4693   -6.2930 H   0  0  0  0  0  0  0  0  0  0  0  0
   -7.9376    3.9951   -5.6564 H   0  0  0  0  0  0  0  0  0  0  0  0
   -8.7748    2.4539   -5.3629 H   0  0  0  0  0  0  0  0  0  0  0  0
   -8.1041    7.9456  -15.7869 H   0  0  0  0  0  0  0  0  0  0  0  0
  1  2  1  0  0  0  0
  1  3  2  0  0  0  0
  2  5  2  0  0  0  0
  3  6  1  0  0  0  0
  4  5  1  0  0  0  0
  4  6  2  0  0  0  0
  5 15  1  0  0  0  0
  6 25  1  0  0  0  0
  7 21  1  0  0  0  0
  7 22  2  0  0  0  0
  7 24  1  0  0  0  0
  8  9  1  0  0  0  0
  8 15  1  0  0  0  0
  9 16  1  0  0  0  0
 10 13  1  0  0  0  0
 10 16  1  0  0  0  0
 11 14  1  0  0  0  0
 11 16  1  0  0  0  0
 12 15  1  0  0  0  0
 12 16  1  0  0  0  0
 13 21  1  0  0  0  0
 14 21  1  0  0  0  0
 15 23  1  0  0  0  0
 17 20  1  0  0  0  0
 18 20  1  0  0  0  0
 19 20  1  0  0  0  0
 20 24  1  0  0  0  0
  1 26  1  0  0  0  0
  2 27  1  0  0  0  0
  3 28  1  0  0  0  0
  4 29  1  0  0  0  0
  8 30  1  0  0  0  0
  8 31  1  0  0  0  0
  9 32  1  0  0  0  0
  9 33  1  0  0  0  0
 10 34  1  0  0  0  0
 10 35  1  0  0  0  0
 11 36  1  0  0  0  0
 11 37  1  0  0  0  0
 12 38  1  0  0  0  0
 12 39  1  0  0  0  0
 13 40  1  0  0  0  0
 13 41  1  0  0  0  0
 14 42  1  0  0  0  0
 14 43  1  0  0  0  0
 17 44  1  0  0  0  0
 17 45  1  0  0  0  0
 17 46  1  0  0  0  0
 18 47  1  0  0  0  0
 18 48  1  0  0  0  0
 18 49  1  0  0  0  0
 19 50  1  0  0  0  0
 19 51  1  0  0  0  0
 19 52  1  0  0  0  0
 23 53  1  0  0  0  0
M  END
> <id>
EN300-7428811

> <smiles>
CC(C)(C)OC(=O)N1CCC2(CCC(O)(C2)C=3C=CC=C(Br)C3)CC1

> <IUPAC Name>
tert-butyl 2-(3-bromophenyl)-2-hydroxy-8-azaspiro[4.5]decane-8-carboxylate

> <CAS>
2309467-19-2

> <URL>
https://www.enaminestore.com/catalog/EN300-7428811

> <ROCS_ShapeQuery>
_x0404_0B

> <ROCS_TanimotoCombo>
0.429 

> <ROCS_ShapeTanimoto>
0.373 

> <ROCS_ColorTanimoto>
0.056 

> <ROCS_RefTversky>
0.328 

> <ROCS_RefColorTversky>
0.061 

> <ROCS_RefTverskyCombo>
0.390 

> <ROCS_FitTversky>
1.576 

> <ROCS_FitColorTversky>
0.388 

> <ROCS_FitTverskyCombo>
1.964 

> <ROCS_ColorScore>
-4.417

> <ROCS_Overlap>
2194.169

> <ROCS_Rank>
450                 

$$$$
untitled-dbase-180395_66
  -OEChem-08222312023D

 45 47  0     1  0  0  0  0  0999 V2000
   -8.8437    2.6619   -9.4103 C   0  0  0  0  0  0  0  0  0  0  0  0
   -9.1032    4.5978   -7.9883 C   0  0  0  0  0  0  0  0  0  0  0  0
   -9.2207    1.8344   -8.3526 C   0  0  0  0  0  0  0  0  0  0  0  0
   -9.4803    3.7703   -6.9306 C   0  0  0  0  0  0  0  0  0  0  0  0
   -8.7849    4.0436   -9.2281 C   0  0  0  0  0  0  0  0  0  0  0  0
   -9.5390    2.3886   -7.1128 C   0  0  0  0  0  0  0  0  0  0  0  0
   -8.0214    5.4552  -15.9911 C   0  0  0  0  0  0  0  0  0  0  0  0
   -8.7300    4.4284  -11.7824 C   0  0  0  0  0  0  0  0  0  0  0  0
   -7.4369    5.8877  -13.5174 C   0  0  0  0  0  0  0  0  0  0  0  0
   -9.5337    5.6591  -13.9327 C   0  0  0  0  0  0  0  0  0  0  0  0
   -9.0228    6.3344  -10.3714 C   0  0  0  0  0  0  0  0  0  0  0  0
   -8.3753    4.9425  -10.3772 C   0  0  1  0  0  0  0  0  0  0  0  0
   -8.6954    5.6947  -12.6377 C   0  0  0  0  0  0  0  0  0  0  0  0
   -8.5252    3.0462  -17.4382 C   0  0  0  0  0  0  0  0  0  0  0  0
  -10.4231    4.3007  -18.5027 C   0  0  0  0  0  0  0  0  0  0  0  0
   -8.0619    5.0922  -18.8289 C   0  0  0  0  0  0  0  0  0  0  0  0
   -9.0399    4.4196  -17.8666 C   0  0  0  0  0  0  0  0  0  0  0  0
   -8.2846    5.6349  -14.6614 N   0  0  0  0  0  0  0  0  0  0  0  0
   -6.8963    5.4827  -16.4822 O   0  0  0  0  0  0  0  0  0  0  0  0
   -8.9749    6.7893  -11.7321 O   0  0  0  0  0  0  0  0  0  0  0  0
   -6.9537    5.0829  -10.2832 O   0  0  0  0  0  0  0  0  0  0  0  0
   -9.1703    5.2411  -16.7011 O   0  0  0  0  0  0  0  0  0  0  0  0
  -10.0492    1.2667   -5.6801 Br  0  0  0  0  0  0  0  0  0  0  0  0
   -8.5975    2.2214  -10.3728 H   0  0  0  0  0  0  0  0  0  0  0  0
   -9.0594    5.6731   -7.8369 H   0  0  0  0  0  0  0  0  0  0  0  0
   -9.2604    0.7597   -8.5111 H   0  0  0  0  0  0  0  0  0  0  0  0
   -9.7254    4.2179   -5.9711 H   0  0  0  0  0  0  0  0  0  0  0  0
   -8.0345    3.6608  -12.1387 H   0  0  0  0  0  0  0  0  0  0  0  0
   -9.7424    4.0046  -11.7874 H   0  0  0  0  0  0  0  0  0  0  0  0
   -7.0142    6.8966  -13.5178 H   0  0  0  0  0  0  0  0  0  0  0  0
   -6.6404    5.1498  -13.3903 H   0  0  0  0  0  0  0  0  0  0  0  0
  -10.1450    4.7661  -14.0873 H   0  0  0  0  0  0  0  0  0  0  0  0
  -10.1248    6.5570  -14.1350 H   0  0  0  0  0  0  0  0  0  0  0  0
  -10.0762    6.3064  -10.0723 H   0  0  0  0  0  0  0  0  0  0  0  0
   -8.4823    7.0489   -9.7431 H   0  0  0  0  0  0  0  0  0  0  0  0
   -7.5325    3.1273  -16.9811 H   0  0  0  0  0  0  0  0  0  0  0  0
   -9.2003    2.5681  -16.7210 H   0  0  0  0  0  0  0  0  0  0  0  0
   -8.4137    2.3830  -18.3037 H   0  0  0  0  0  0  0  0  0  0  0  0
  -10.7964    5.2838  -18.8116 H   0  0  0  0  0  0  0  0  0  0  0  0
  -11.1506    3.9062  -17.7841 H   0  0  0  0  0  0  0  0  0  0  0  0
  -10.4099    3.6440  -19.3786 H   0  0  0  0  0  0  0  0  0  0  0  0
   -8.4309    6.0774  -19.1363 H   0  0  0  0  0  0  0  0  0  0  0  0
   -7.0734    5.2194  -18.3758 H   0  0  0  0  0  0  0  0  0  0  0  0
   -7.9512    4.5033  -19.7466 H   0  0  0  0  0  0  0  0  0  0  0  0
   -6.6797    5.6581  -11.0160 H   0  0  0  0  0  0  0  0  0  0  0  0
  1  3  1  0  0  0  0
  1  5  2  0  0  0  0
  2  4  2  0  0  0  0
  2  5  1  0  0  0  0
  3  6  2  0  0  0  0
  4  6  1  0  0  0  0
  5 12  1  0  0  0  0
  6 23  1  0  0  0  0
  7 18  1  0  0  0  0
  7 19  2  0  0  0  0
  7 22  1  0  0  0  0
  8 12  1  0  0  0  0
  8 13  1  0  0  0  0
  9 13  1  0  0  0  0
  9 18  1  0  0  0  0
 10 13  1  0  0  0  0
 10 18  1  0  0  0  0
 11 12  1  0  0  0  0
 11 20  1  0  0  0  0
 12 21  1  0  0  0  0
 13 20  1  0  0  0  0
 14 17  1  0  0  0  0
 15 17  1  0  0  0  0
 16 17  1  0  0  0  0
 17 22  1  0  0  0  0
  1 24  1  0  0  0  0
  2 25  1  0  0  0  0
  3 26  1  0  0  0  0
  4 27  1  0  0  0  0
  8 28  1  0  0  0  0
  8 29  1  0  0  0  0
  9 30  1  0  0  0  0
  9 31  1  0  0  0  0
 10 32  1  0  0  0  0
 10 33  1  0  0  0  0
 11 34  1  0  0  0  0
 11 35  1  0  0  0  0
 14 36  1  0  0  0  0
 14 37  1  0  0  0  0
 14 38  1  0  0  0  0
 15 39  1  0  0  0  0
 15 40  1  0  0  0  0
 15 41  1  0  0  0  0
 16 42  1  0  0  0  0
 16 43  1  0  0  0  0
 16 44  1  0  0  0  0
 21 45  1  0  0  0  0
M  END
> <id>
EN300-7428897

> <smiles>
CC(C)(C)OC(=O)N1CC2(C1)CC(O)(CO2)C=3C=CC(Br)=CC3

> <IUPAC Name>
tert-butyl 7-(4-bromophenyl)-7-hydroxy-5-oxa-2-azaspiro[3.4]octane-2-carboxylate

> <CAS>
2309447-33-2

> <URL>
https://www.enaminestore.com/catalog/EN300-7428897

> <ROCS_ShapeQuery>
_x0404_0B

> <ROCS_TanimotoCombo>
0.429 

> <ROCS_ShapeTanimoto>
0.380 

> <ROCS_ColorTanimoto>
0.049 

> <ROCS_RefTversky>
0.330 

> <ROCS_RefColorTversky>
0.055 

> <ROCS_RefTverskyCombo>
0.385 

> <ROCS_FitTversky>
1.663 

> <ROCS_FitColorTversky>
0.322 

> <ROCS_FitTverskyCombo>
1.985 

> <ROCS_ColorScore>
-3.974

> <ROCS_Overlap>
2201.961

> <ROCS_Rank>
451                 

$$$$
untitled-dbase-103098_770
  -OEChem-08222312023D

 45 46  0     1  0  0  0  0  0999 V2000
   -9.4467    4.7520  -15.8451 C   0  0  0  0  0  0  0  0  0  0  0  0
   -9.2366    3.8819  -16.9028 C   0  0  0  0  0  0  0  0  0  0  0  0
   -8.4907    5.7341  -15.6106 C   0  0  0  0  0  0  0  0  0  0  0  0
   -7.3698    5.8150  -16.4294 C   0  0  0  0  0  0  0  0  0  0  0  0
   -7.2527    4.8971  -17.4608 C   0  0  0  0  0  0  0  0  0  0  0  0
   -8.6678    6.6815  -14.5001 C   0  0  0  0  0  0  0  0  0  0  0  0
   -8.7851    4.9566   -9.0750 C   0  0  0  0  0  0  0  0  0  0  0  0
   -8.6758    4.7380  -12.8737 C   0  0  0  0  0  0  0  0  0  0  0  0
   -8.1878    4.4591  -11.4577 C   0  0  0  0  0  0  0  0  0  0  0  0
   -9.6596    6.3958  -10.8936 C   0  0  0  0  0  0  0  0  0  0  0  0
   -9.0173    7.1047  -12.0896 C   0  0  1  0  0  0  0  0  0  0  0  0
   -7.7362    7.8409  -11.6806 C   0  0  0  0  0  0  0  0  0  0  0  0
  -10.9534    3.1140   -8.7818 C   0  0  0  0  0  0  0  0  0  0  0  0
   -9.2256    1.5002   -7.9335 C   0  0  0  0  0  0  0  0  0  0  0  0
   -9.6612    3.6362   -6.6861 C   0  0  0  0  0  0  0  0  0  0  0  0
   -9.6135    2.9717   -8.0612 C   0  0  0  0  0  0  0  0  0  0  0  0
   -8.1604    3.9293  -17.7195 N   0  0  0  0  0  0  0  0  0  0  0  0
   -8.7563    6.1694  -13.1972 N   0  0  0  0  0  0  0  0  0  0  0  0
   -8.8724    5.2537  -10.4385 N   0  0  0  0  0  0  0  0  0  0  0  0
   -8.7314    7.8723  -14.8035 O   0  0  0  0  0  0  0  0  0  0  0  0
   -8.8562    5.7921   -8.1760 O   0  0  0  0  0  0  0  0  0  0  0  0
   -8.6038    3.6176   -8.8449 O   0  0  0  0  0  0  0  0  0  0  0  0
   -6.4280    6.7461  -16.2353 F   0  0  0  0  0  0  0  0  0  0  0  0
   -6.1752    4.9645  -18.2578 F   0  0  0  0  0  0  0  0  0  0  0  0
  -10.3326    4.6610  -15.2256 H   0  0  0  0  0  0  0  0  0  0  0  0
   -9.9525    3.0982  -17.1277 H   0  0  0  0  0  0  0  0  0  0  0  0
   -7.9890    4.2846  -13.6047 H   0  0  0  0  0  0  0  0  0  0  0  0
   -9.6482    4.2482  -13.0168 H   0  0  0  0  0  0  0  0  0  0  0  0
   -8.3529    3.3971  -11.2006 H   0  0  0  0  0  0  0  0  0  0  0  0
   -7.0972    4.6213  -11.4018 H   0  0  0  0  0  0  0  0  0  0  0  0
   -9.8411    7.1111  -10.0798 H   0  0  0  0  0  0  0  0  0  0  0  0
  -10.6472    6.0027  -11.1822 H   0  0  0  0  0  0  0  0  0  0  0  0
   -9.7258    7.8651  -12.4409 H   0  0  0  0  0  0  0  0  0  0  0  0
   -7.0013    7.1233  -11.3239 H   0  0  0  0  0  0  0  0  0  0  0  0
   -7.9607    8.5505  -10.8881 H   0  0  0  0  0  0  0  0  0  0  0  0
   -7.3325    8.3740  -12.5379 H   0  0  0  0  0  0  0  0  0  0  0  0
  -11.2354    4.1688   -8.8755 H   0  0  0  0  0  0  0  0  0  0  0  0
  -10.9218    2.6722   -9.7831 H   0  0  0  0  0  0  0  0  0  0  0  0
  -11.7559    2.6287   -8.2146 H   0  0  0  0  0  0  0  0  0  0  0  0
   -8.2648    1.3934   -7.4170 H   0  0  0  0  0  0  0  0  0  0  0  0
   -9.0975    1.0432   -8.9213 H   0  0  0  0  0  0  0  0  0  0  0  0
   -9.9805    0.9297   -7.3828 H   0  0  0  0  0  0  0  0  0  0  0  0
   -8.7002    3.5343   -6.1690 H   0  0  0  0  0  0  0  0  0  0  0  0
   -9.9020    4.7016   -6.7611 H   0  0  0  0  0  0  0  0  0  0  0  0
  -10.4092    3.1543   -6.0462 H   0  0  0  0  0  0  0  0  0  0  0  0
  1  2  1  0  0  0  0
  1  3  2  0  0  0  0
  2 17  2  0  0  0  0
  3  4  1  0  0  0  0
  3  6  1  0  0  0  0
  4  5  2  0  0  0  0
  4 23  1  0  0  0  0
  5 17  1  0  0  0  0
  5 24  1  0  0  0  0
  6 18  1  0  0  0  0
  6 20  2  0  0  0  0
  7 19  1  0  0  0  0
  7 21  2  0  0  0  0
  7 22  1  0  0  0  0
  8  9  1  0  0  0  0
  8 18  1  0  0  0  0
  9 19  1  0  0  0  0
 10 11  1  0  0  0  0
 10 19  1  0  0  0  0
 11 12  1  0  0  0  0
 11 18  1  0  0  0  0
 13 16  1  0  0  0  0
 14 16  1  0  0  0  0
 15 16  1  0  0  0  0
 16 22  1  0  0  0  0
  1 25  1  0  0  0  0
  2 26  1  0  0  0  0
  8 27  1  0  0  0  0
  8 28  1  0  0  0  0
  9 29  1  0  0  0  0
  9 30  1  0  0  0  0
 10 31  1  0  0  0  0
 10 32  1  0  0  0  0
 11 33  1  0  0  0  0
 12 34  1  0  0  0  0
 12 35  1  0  0  0  0
 12 36  1  0  0  0  0
 13 37  1  0  0  0  0
 13 38  1  0  0  0  0
 13 39  1  0  0  0  0
 14 40  1  0  0  0  0
 14 41  1  0  0  0  0
 14 42  1  0  0  0  0
 15 43  1  0  0  0  0
 15 44  1  0  0  0  0
 15 45  1  0  0  0  0
M  END
> <id>
EN300-6625318

> <smiles>
CC1CN(CCN1C(=O)C=2C=CN=C(F)C2F)C(=O)OC(C)(C)C

> <IUPAC Name>
tert-butyl 4-(2,3-difluoropyridine-4-carbonyl)-3-methylpiperazine-1-carboxylate

> <CAS>
1795306-30-7

> <URL>
https://www.enaminestore.com/catalog/EN300-6625318

> <ROCS_ShapeQuery>
_x0404_0B

> <ROCS_TanimotoCombo>
0.429 

> <ROCS_ShapeTanimoto>
0.377 

> <ROCS_ColorTanimoto>
0.052 

> <ROCS_RefTversky>
0.330 

> <ROCS_RefColorTversky>
0.056 

> <ROCS_RefTverskyCombo>
0.386 

> <ROCS_FitTversky>
1.606 

> <ROCS_FitColorTversky>
0.426 

> <ROCS_FitTverskyCombo>
2.032 

> <ROCS_ColorScore>
-4.043

> <ROCS_Overlap>
2203.951

> <ROCS_Rank>
452                 

$$$$
untitled-dbase-180477_110
  -OEChem-08222312023D

 41 43  0     0  0  0  0  0  0999 V2000
   -9.0324    6.2397  -10.9167 C   0  0  0  0  0  0  0  0  0  0  0  0
   -8.6649    4.9282   -9.2090 C   0  0  0  0  0  0  0  0  0  0  0  0
   -8.4259    5.7705  -14.5454 C   0  0  0  0  0  0  0  0  0  0  0  0
   -9.2408    6.6540  -12.3265 C   0  0  0  0  0  0  0  0  0  0  0  0
   -8.6558    3.8497  -11.4904 C   0  0  0  0  0  0  0  0  0  0  0  0
   -9.2958    4.1982  -12.8307 C   0  0  0  0  0  0  0  0  0  0  0  0
   -8.5197    3.7775   -6.7675 C   0  0  0  0  0  0  0  0  0  0  0  0
   -9.4795    2.5787   -8.1507 C   0  0  0  0  0  0  0  0  0  0  0  0
   -8.3812    3.6607   -8.3068 C   0  0  0  0  0  0  0  0  0  0  0  0
   -7.3381    5.6819  -17.1910 C   0  0  0  0  0  0  0  0  0  0  0  0
   -8.0375    3.2694  -17.1985 C   0  0  0  0  0  0  0  0  0  0  0  0
   -9.7712    5.0735  -16.9805 C   0  0  0  0  0  0  0  0  0  0  0  0
   -8.3378    4.6618  -16.6479 C   0  0  0  0  0  0  0  0  0  0  0  0
   -9.0677    6.9796   -9.8275 N   0  0  0  0  0  0  0  0  0  0  0  0
   -8.8337    6.1477   -8.7463 N   0  0  0  0  0  0  0  0  0  0  0  0
   -8.7824    4.9452  -10.5581 N   0  0  0  0  0  0  0  0  0  0  0  0
   -9.0478    2.3942   -6.7463 N   0  0  0  0  0  0  0  0  0  0  0  0
   -8.9234    5.5545  -13.2550 N   0  0  0  0  0  0  0  0  0  0  0  0
   -8.2066    6.8800  -15.0280 O   0  0  0  0  0  0  0  0  0  0  0  0
   -8.1994    4.6017  -15.2236 O   0  0  0  0  0  0  0  0  0  0  0  0
  -10.2727    6.9886  -12.4663 H   0  0  0  0  0  0  0  0  0  0  0  0
   -8.5754    7.4880  -12.5747 H   0  0  0  0  0  0  0  0  0  0  0  0
   -9.1505    2.9848  -11.0349 H   0  0  0  0  0  0  0  0  0  0  0  0
   -7.5922    3.6265  -11.6206 H   0  0  0  0  0  0  0  0  0  0  0  0
   -8.9412    3.5159  -13.6132 H   0  0  0  0  0  0  0  0  0  0  0  0
  -10.3828    4.0878  -12.7684 H   0  0  0  0  0  0  0  0  0  0  0  0
   -7.5843    3.9156   -6.2173 H   0  0  0  0  0  0  0  0  0  0  0  0
   -9.2448    4.5208   -6.4142 H   0  0  0  0  0  0  0  0  0  0  0  0
  -10.5122    2.9372   -8.2407 H   0  0  0  0  0  0  0  0  0  0  0  0
   -9.3626    1.6933   -8.7827 H   0  0  0  0  0  0  0  0  0  0  0  0
   -7.3778    3.1960   -8.5985 H   0  0  0  0  0  0  0  0  0  0  0  0
   -7.5503    6.6827  -16.7981 H   0  0  0  0  0  0  0  0  0  0  0  0
   -6.3086    5.4166  -16.9291 H   0  0  0  0  0  0  0  0  0  0  0  0
   -7.4094    5.7566  -18.2821 H   0  0  0  0  0  0  0  0  0  0  0  0
   -8.7524    2.5343  -16.8115 H   0  0  0  0  0  0  0  0  0  0  0  0
   -7.0444    2.9304  -16.8821 H   0  0  0  0  0  0  0  0  0  0  0  0
   -8.0783    3.2500  -18.2923 H   0  0  0  0  0  0  0  0  0  0  0  0
  -10.4885    4.3420  -16.5911 H   0  0  0  0  0  0  0  0  0  0  0  0
  -10.0165    6.0548  -16.5615 H   0  0  0  0  0  0  0  0  0  0  0  0
   -9.9246    5.1097  -18.0651 H   0  0  0  0  0  0  0  0  0  0  0  0
   -8.3149    1.6911   -6.6452 H   0  0  0  0  0  0  0  0  0  0  0  0
  1  4  1  0  0  0  0
  1 14  2  0  0  0  0
  1 16  1  0  0  0  0
  2  9  1  0  0  0  0
  2 15  2  0  0  0  0
  2 16  1  0  0  0  0
  3 18  1  0  0  0  0
  3 19  2  0  0  0  0
  3 20  1  0  0  0  0
  4 18  1  0  0  0  0
  5  6  1  0  0  0  0
  5 16  1  0  0  0  0
  6 18  1  0  0  0  0
  7  9  1  0  0  0  0
  7 17  1  0  0  0  0
  8  9  1  0  0  0  0
  8 17  1  0  0  0  0
 10 13  1  0  0  0  0
 11 13  1  0  0  0  0
 12 13  1  0  0  0  0
 13 20  1  0  0  0  0
 14 15  1  0  0  0  0
  4 21  1  0  0  0  0
  4 22  1  0  0  0  0
  5 23  1  0  0  0  0
  5 24  1  0  0  0  0
  6 25  1  0  0  0  0
  6 26  1  0  0  0  0
  7 27  1  0  0  0  0
  7 28  1  0  0  0  0
  8 29  1  0  0  0  0
  8 30  1  0  0  0  0
  9 31  1  0  0  0  0
 10 32  1  0  0  0  0
 10 33  1  0  0  0  0
 10 34  1  0  0  0  0
 11 35  1  0  0  0  0
 11 36  1  0  0  0  0
 11 37  1  0  0  0  0
 12 38  1  0  0  0  0
 12 39  1  0  0  0  0
 12 40  1  0  0  0  0
 17 41  1  0  0  0  0
M  END
> <id>
EN300-43346680

> <smiles>
CC(C)(C)OC(=O)N1CCN2C(=NN=C2C1)C3CNC3

> <IUPAC Name>
tert-butyl 3-(azetidin-3-yl)-5H,6H,7H,8H-[1,2,4]triazolo[4,3-a]pyrazine-7-carboxylate

> <URL>
https://www.enaminestore.com/catalog/EN300-43346680

> <ROCS_ShapeQuery>
_x0404_0B

> <ROCS_TanimotoCombo>
0.429 

> <ROCS_ShapeTanimoto>
0.332 

> <ROCS_ColorTanimoto>
0.097 

> <ROCS_RefTversky>
0.294 

> <ROCS_RefColorTversky>
0.104 

> <ROCS_RefTverskyCombo>
0.398 

> <ROCS_FitTversky>
1.622 

> <ROCS_FitColorTversky>
0.596 

> <ROCS_FitTverskyCombo>
2.218 

> <ROCS_ColorScore>
-7.533

> <ROCS_Overlap>
1962.587

> <ROCS_Rank>
453                 

$$$$
untitled-dbase-95905_883
  -OEChem-08222312023D

 54 54  0     0  0  0  0  0  0999 V2000
   -8.5276    5.7585  -14.4917 C   0  0  0  0  0  0  0  0  0  0  0  0
   -8.6718    5.1895   -9.1952 C   0  0  0  0  0  0  0  0  0  0  0  0
   -9.5721    6.3555  -12.3250 C   0  0  0  0  0  0  0  0  0  0  0  0
   -8.5649    6.6268  -11.2135 C   0  0  0  0  0  0  0  0  0  0  0  0
   -9.2112    3.9469  -12.8680 C   0  0  0  0  0  0  0  0  0  0  0  0
   -7.2803    4.4876  -11.1830 C   0  0  0  0  0  0  0  0  0  0  0  0
   -8.0155    3.4360  -12.0371 C   0  0  0  0  0  0  0  0  0  0  0  0
   -8.4431    2.2106  -11.2202 C   0  0  0  0  0  0  0  0  0  0  0  0
   -6.2837    5.8586  -16.2649 C   0  0  0  0  0  0  0  0  0  0  0  0
   -7.1863    3.7223  -17.2296 C   0  0  0  0  0  0  0  0  0  0  0  0
   -8.5503    5.8273  -17.3586 C   0  0  0  0  0  0  0  0  0  0  0  0
  -10.6825    4.1358   -7.4518 C   0  0  0  0  0  0  0  0  0  0  0  0
   -9.3421    2.0119   -7.4930 C   0  0  0  0  0  0  0  0  0  0  0  0
   -8.3295    4.1120   -6.5589 C   0  0  0  0  0  0  0  0  0  0  0  0
   -7.5415    5.0327  -16.5305 C   0  0  0  0  0  0  0  0  0  0  0  0
   -9.2859    3.5342   -7.6011 C   0  0  0  0  0  0  0  0  0  0  0  0
   -9.1046    5.3518  -13.2830 N   0  0  0  0  0  0  0  0  0  0  0  0
   -8.1748    5.4185  -10.4837 N   0  0  0  0  0  0  0  0  0  0  0  0
   -6.9903    2.9297  -12.9994 N   0  3  0  0  0  0  0  0  0  0  0  0
   -7.3377    2.0069  -13.7408 O   0  5  0  0  0  0  0  0  0  0  0  0
   -8.3759    6.9320  -14.8264 O   0  0  0  0  0  0  0  0  0  0  0  0
   -8.9709    6.0780   -8.3995 O   0  0  0  0  0  0  0  0  0  0  0  0
   -5.8891    3.4847  -12.9845 O   0  0  0  0  0  0  0  0  0  0  0  0
   -8.1432    4.7019  -15.2738 O   0  0  0  0  0  0  0  0  0  0  0  0
   -8.7882    3.8560   -8.9047 O   0  0  0  0  0  0  0  0  0  0  0  0
  -10.5131    6.0131  -11.8769 H   0  0  0  0  0  0  0  0  0  0  0  0
   -9.8142    7.2779  -12.8681 H   0  0  0  0  0  0  0  0  0  0  0  0
   -7.6618    7.0500  -11.6369 H   0  0  0  0  0  0  0  0  0  0  0  0
   -8.9871    7.3418  -10.5193 H   0  0  0  0  0  0  0  0  0  0  0  0
   -9.3395    3.3493  -13.7856 H   0  0  0  0  0  0  0  0  0  0  0  0
  -10.1458    3.8100  -12.3007 H   0  0  0  0  0  0  0  0  0  0  0  0
   -6.6591    3.9764  -10.4326 H   0  0  0  0  0  0  0  0  0  0  0  0
   -6.5756    5.0784  -11.7863 H   0  0  0  0  0  0  0  0  0  0  0  0
   -7.6008    1.8503  -10.6344 H   0  0  0  0  0  0  0  0  0  0  0  0
   -8.7777    1.4232  -11.8913 H   0  0  0  0  0  0  0  0  0  0  0  0
   -9.2561    2.4833  -10.5514 H   0  0  0  0  0  0  0  0  0  0  0  0
   -6.5344    6.8001  -15.7631 H   0  0  0  0  0  0  0  0  0  0  0  0
   -5.5669    5.3131  -15.6425 H   0  0  0  0  0  0  0  0  0  0  0  0
   -5.7893    6.1312  -17.2043 H   0  0  0  0  0  0  0  0  0  0  0  0
   -8.0858    3.1265  -17.4221 H   0  0  0  0  0  0  0  0  0  0  0  0
   -6.5373    3.1059  -16.5971 H   0  0  0  0  0  0  0  0  0  0  0  0
   -6.6763    3.8980  -18.1823 H   0  0  0  0  0  0  0  0  0  0  0  0
   -9.4526    5.2351  -17.5493 H   0  0  0  0  0  0  0  0  0  0  0  0
   -8.8449    6.7537  -16.8550 H   0  0  0  0  0  0  0  0  0  0  0  0
   -8.1343    6.0817  -18.3402 H   0  0  0  0  0  0  0  0  0  0  0  0
  -10.6465    5.2284   -7.5288 H   0  0  0  0  0  0  0  0  0  0  0  0
  -11.3692    3.7558   -8.2153 H   0  0  0  0  0  0  0  0  0  0  0  0
  -11.1024    3.9092   -6.4651 H   0  0  0  0  0  0  0  0  0  0  0  0
   -8.3421    1.5761   -7.5996 H   0  0  0  0  0  0  0  0  0  0  0  0
   -9.9519    1.5857   -8.2977 H   0  0  0  0  0  0  0  0  0  0  0  0
   -9.7600    1.6902   -6.5336 H   0  0  0  0  0  0  0  0  0  0  0  0
   -7.3276    3.6807   -6.6658 H   0  0  0  0  0  0  0  0  0  0  0  0
   -8.2482    5.2004   -6.6456 H   0  0  0  0  0  0  0  0  0  0  0  0
   -8.6647    3.8676   -5.5445 H   0  0  0  0  0  0  0  0  0  0  0  0
  1 17  1  0  0  0  0
  1 21  2  0  0  0  0
  1 24  1  0  0  0  0
  2 18  1  0  0  0  0
  2 22  2  0  0  0  0
  2 25  1  0  0  0  0
  3  4  1  0  0  0  0
  3 17  1  0  0  0  0
  4 18  1  0  0  0  0
  5  7  1  0  0  0  0
  5 17  1  0  0  0  0
  6  7  1  0  0  0  0
  6 18  1  0  0  0  0
  7  8  1  0  0  0  0
  7 19  1  0  0  0  0
  9 15  1  0  0  0  0
 10 15  1  0  0  0  0
 11 15  1  0  0  0  0
 12 16  1  0  0  0  0
 13 16  1  0  0  0  0
 14 16  1  0  0  0  0
 15 24  1  0  0  0  0
 16 25  1  0  0  0  0
 19 20  1  0  0  0  0
 19 23  2  0  0  0  0
  3 26  1  0  0  0  0
  3 27  1  0  0  0  0
  4 28  1  0  0  0  0
  4 29  1  0  0  0  0
  5 30  1  0  0  0  0
  5 31  1  0  0  0  0
  6 32  1  0  0  0  0
  6 33  1  0  0  0  0
  8 34  1  0  0  0  0
  8 35  1  0  0  0  0
  8 36  1  0  0  0  0
  9 37  1  0  0  0  0
  9 38  1  0  0  0  0
  9 39  1  0  0  0  0
 10 40  1  0  0  0  0
 10 41  1  0  0  0  0
 10 42  1  0  0  0  0
 11 43  1  0  0  0  0
 11 44  1  0  0  0  0
 11 45  1  0  0  0  0
 12 46  1  0  0  0  0
 12 47  1  0  0  0  0
 12 48  1  0  0  0  0
 13 49  1  0  0  0  0
 13 50  1  0  0  0  0
 13 51  1  0  0  0  0
 14 52  1  0  0  0  0
 14 53  1  0  0  0  0
 14 54  1  0  0  0  0
M  CHG  2  19   1  20  -1
M  END
> <id>
EN300-1652923

> <smiles>
CC(C)(C)OC(=O)N1CCN(CC(C)(C1)[N+](=O)[O-])C(=O)OC(C)(C)C

> <IUPAC Name>
1,4-di-tert-butyl 6-methyl-6-nitro-1,4-diazepane-1,4-dicarboxylate

> <CAS>
2172494-86-7

> <URL>
https://www.enaminestore.com/catalog/EN300-1652923

> <ROCS_ShapeQuery>
_x0404_0B

> <ROCS_TanimotoCombo>
0.429 

> <ROCS_ShapeTanimoto>
0.336 

> <ROCS_ColorTanimoto>
0.093 

> <ROCS_RefTversky>
0.304 

> <ROCS_RefColorTversky>
0.098 

> <ROCS_RefTverskyCombo>
0.402 

> <ROCS_FitTversky>
1.456 

> <ROCS_FitColorTversky>
0.623 

> <ROCS_FitTverskyCombo>
2.080 

> <ROCS_ColorScore>
-7.103

> <ROCS_Overlap>
2031.045

> <ROCS_Rank>
454                 

$$$$
untitled-dbase-155142_382
  -OEChem-08222312023D

 45 47  0     0  0  0  0  0  0999 V2000
  -10.1347    3.9190  -18.4617 C   0  0  0  0  0  0  0  0  0  0  0  0
   -9.1453    4.6150  -19.1401 C   0  0  0  0  0  0  0  0  0  0  0  0
  -10.1760    3.9651  -17.0693 C   0  0  0  0  0  0  0  0  0  0  0  0
   -8.2055    5.3506  -18.4204 C   0  0  0  0  0  0  0  0  0  0  0  0
   -9.2417    4.6973  -16.3405 C   0  0  0  0  0  0  0  0  0  0  0  0
   -8.2379    5.4032  -17.0288 C   0  0  0  0  0  0  0  0  0  0  0  0
   -8.3751    5.4492  -14.3441 C   0  0  0  0  0  0  0  0  0  0  0  0
   -7.3979    6.1361  -15.0141 C   0  0  0  0  0  0  0  0  0  0  0  0
   -9.2284    5.2251   -8.9023 C   0  0  0  0  0  0  0  0  0  0  0  0
   -8.2997    4.2188  -12.2188 C   0  0  0  0  0  0  0  0  0  0  0  0
   -9.2111    6.5393  -12.2793 C   0  0  0  0  0  0  0  0  0  0  0  0
   -7.8086    4.4673  -10.7946 C   0  0  0  0  0  0  0  0  0  0  0  0
   -8.7113    6.7533  -10.8510 C   0  0  0  0  0  0  0  0  0  0  0  0
   -9.3382    3.9667   -6.3344 C   0  0  0  0  0  0  0  0  0  0  0  0
   -9.3944    1.8002   -7.6042 C   0  0  0  0  0  0  0  0  0  0  0  0
   -7.3985    3.3124   -7.7987 C   0  0  0  0  0  0  0  0  0  0  0  0
   -8.9142    3.2498   -7.6155 C   0  0  0  0  0  0  0  0  0  0  0  0
   -9.3024    4.7263  -14.9976 N   0  0  0  0  0  0  0  0  0  0  0  0
   -7.3200    6.1200  -16.3569 N   0  0  0  0  0  0  0  0  0  0  0  0
   -8.4245    5.4924  -12.9462 N   0  0  0  0  0  0  0  0  0  0  0  0
   -8.6260    5.4804  -10.1353 N   0  0  0  0  0  0  0  0  0  0  0  0
   -9.4623    6.0846   -8.0545 O   0  0  0  0  0  0  0  0  0  0  0  0
   -9.5355    3.9016   -8.7294 O   0  0  0  0  0  0  0  0  0  0  0  0
   -6.1847    7.0771  -14.2485 Cl  0  0  0  0  0  0  0  0  0  0  0  0
  -10.8729    3.3423  -19.0103 H   0  0  0  0  0  0  0  0  0  0  0  0
   -9.1032    4.5889  -20.2248 H   0  0  0  0  0  0  0  0  0  0  0  0
  -10.9570    3.4135  -16.5498 H   0  0  0  0  0  0  0  0  0  0  0  0
   -7.4355    5.8931  -18.9654 H   0  0  0  0  0  0  0  0  0  0  0  0
   -7.5981    3.5483  -12.7256 H   0  0  0  0  0  0  0  0  0  0  0  0
   -9.2746    3.7220  -12.2043 H   0  0  0  0  0  0  0  0  0  0  0  0
  -10.2658    6.2481  -12.2497 H   0  0  0  0  0  0  0  0  0  0  0  0
   -9.1372    7.4744  -12.8449 H   0  0  0  0  0  0  0  0  0  0  0  0
   -7.8343    3.5396  -10.2216 H   0  0  0  0  0  0  0  0  0  0  0  0
   -6.7778    4.8287  -10.7981 H   0  0  0  0  0  0  0  0  0  0  0  0
   -7.7348    7.2313  -10.8690 H   0  0  0  0  0  0  0  0  0  0  0  0
   -9.3964    7.3928  -10.2963 H   0  0  0  0  0  0  0  0  0  0  0  0
   -8.9954    5.0076   -6.3386 H   0  0  0  0  0  0  0  0  0  0  0  0
  -10.4259    3.9593   -6.2092 H   0  0  0  0  0  0  0  0  0  0  0  0
   -8.8853    3.4956   -5.4545 H   0  0  0  0  0  0  0  0  0  0  0  0
   -9.0924    1.2820   -8.5216 H   0  0  0  0  0  0  0  0  0  0  0  0
  -10.4888    1.7518   -7.5685 H   0  0  0  0  0  0  0  0  0  0  0  0
   -8.9948    1.2488   -6.7470 H   0  0  0  0  0  0  0  0  0  0  0  0
   -7.0941    2.7983   -8.7175 H   0  0  0  0  0  0  0  0  0  0  0  0
   -7.0403    4.3459   -7.8461 H   0  0  0  0  0  0  0  0  0  0  0  0
   -6.8851    2.8033   -6.9749 H   0  0  0  0  0  0  0  0  0  0  0  0
  1  2  2  0  0  0  0
  1  3  1  0  0  0  0
  2  4  1  0  0  0  0
  3  5  2  0  0  0  0
  4  6  2  0  0  0  0
  5  6  1  0  0  0  0
  5 18  1  0  0  0  0
  6 19  1  0  0  0  0
  7  8  1  0  0  0  0
  7 18  2  0  0  0  0
  7 20  1  0  0  0  0
  8 19  2  0  0  0  0
  8 24  1  0  0  0  0
  9 21  1  0  0  0  0
  9 22  2  0  0  0  0
  9 23  1  0  0  0  0
 10 12  1  0  0  0  0
 10 20  1  0  0  0  0
 11 13  1  0  0  0  0
 11 20  1  0  0  0  0
 12 21  1  0  0  0  0
 13 21  1  0  0  0  0
 14 17  1  0  0  0  0
 15 17  1  0  0  0  0
 16 17  1  0  0  0  0
 17 23  1  0  0  0  0
  1 25  1  0  0  0  0
  2 26  1  0  0  0  0
  3 27  1  0  0  0  0
  4 28  1  0  0  0  0
 10 29  1  0  0  0  0
 10 30  1  0  0  0  0
 11 31  1  0  0  0  0
 11 32  1  0  0  0  0
 12 33  1  0  0  0  0
 12 34  1  0  0  0  0
 13 35  1  0  0  0  0
 13 36  1  0  0  0  0
 14 37  1  0  0  0  0
 14 38  1  0  0  0  0
 14 39  1  0  0  0  0
 15 40  1  0  0  0  0
 15 41  1  0  0  0  0
 15 42  1  0  0  0  0
 16 43  1  0  0  0  0
 16 44  1  0  0  0  0
 16 45  1  0  0  0  0
M  END
> <id>
EN300-18490382

> <smiles>
CC(C)(C)OC(=O)N1CCN(CC1)C=2N=C3C=CC=CC3=NC2Cl

> <MDLNUMBER>
MFCD09607864

> <IUPAC Name>
tert-butyl 4-(3-chloroquinoxalin-2-yl)piperazine-1-carboxylate

> <CAS>
651047-41-5

> <URL>
https://www.enaminestore.com/catalog/EN300-18490382

> <ROCS_ShapeQuery>
_x0404_0B

> <ROCS_TanimotoCombo>
0.429 

> <ROCS_ShapeTanimoto>
0.374 

> <ROCS_ColorTanimoto>
0.055 

> <ROCS_RefTversky>
0.328 

> <ROCS_RefColorTversky>
0.060 

> <ROCS_RefTverskyCombo>
0.388 

> <ROCS_FitTversky>
1.584 

> <ROCS_FitColorTversky>
0.414 

> <ROCS_FitTverskyCombo>
1.997 

> <ROCS_ColorScore>
-4.318

> <ROCS_Overlap>
2194.156

> <ROCS_Rank>
455                 

$$$$
untitled-dbase-139323_2
  -OEChem-08222312023D

 34 36  0     0  0  0  0  0  0999 V2000
   -7.8726    6.0484  -14.8535 C   0  0  0  0  0  0  0  0  0  0  0  0
   -9.2462    4.0881  -14.5254 C   0  0  0  0  0  0  0  0  0  0  0  0
   -7.7892    5.7619  -16.2160 C   0  0  0  0  0  0  0  0  0  0  0  0
   -9.1629    3.8017  -15.8880 C   0  0  0  0  0  0  0  0  0  0  0  0
   -8.6010    5.2114  -14.0081 C   0  0  0  0  0  0  0  0  0  0  0  0
   -8.4344    4.6386  -16.7333 C   0  0  0  0  0  0  0  0  0  0  0  0
   -8.6891    5.5100  -12.5843 C   0  0  0  0  0  0  0  0  0  0  0  0
   -8.9183    4.5760  -10.4886 C   0  0  0  0  0  0  0  0  0  0  0  0
   -8.8726    5.9441   -9.9150 C   0  0  0  0  0  0  0  0  0  0  0  0
   -9.0689    3.3676   -9.6334 C   0  0  0  0  0  0  0  0  0  0  0  0
   -9.1233    5.0087   -7.7697 C   0  0  0  0  0  0  0  0  0  0  0  0
   -8.6654    8.3533  -10.4383 C   0  0  0  0  0  0  0  0  0  0  0  0
   -9.3276    2.5937   -7.3357 C   0  0  0  0  0  0  0  0  0  0  0  0
   -8.3459    4.3334  -18.1906 C   0  0  0  0  0  0  0  0  0  0  0  0
   -8.6360    6.7431  -12.1772 N   0  0  0  0  0  0  0  0  0  0  0  0
   -8.8271    4.4102  -11.7665 N   0  0  0  0  0  0  0  0  0  0  0  0
   -8.9743    6.0775   -8.6312 N   0  0  0  0  0  0  0  0  0  0  0  0
   -8.7223    6.9564  -10.8382 N   0  0  0  0  0  0  0  0  0  0  0  0
   -9.1676    3.6887   -8.2850 N   0  0  0  0  0  0  0  0  0  0  0  0
   -9.0906    2.2682  -10.1640 O   0  0  0  0  0  0  0  0  0  0  0  0
   -9.2164    5.2122   -6.5560 O   0  0  0  0  0  0  0  0  0  0  0  0
   -7.6023    5.2371  -18.8950 F   0  0  0  0  0  0  0  0  0  0  0  0
   -7.7813    3.1196  -18.4615 F   0  0  0  0  0  0  0  0  0  0  0  0
   -9.5681    4.3125  -18.7978 F   0  0  0  0  0  0  0  0  0  0  0  0
   -7.3662    6.9261  -14.4605 H   0  0  0  0  0  0  0  0  0  0  0  0
   -9.8165    3.4289  -13.8761 H   0  0  0  0  0  0  0  0  0  0  0  0
   -7.2198    6.4196  -16.8674 H   0  0  0  0  0  0  0  0  0  0  0  0
   -9.6692    2.9246  -16.2826 H   0  0  0  0  0  0  0  0  0  0  0  0
   -7.6206    8.6376  -10.2447 H   0  0  0  0  0  0  0  0  0  0  0  0
   -9.0731    8.9819  -11.2437 H   0  0  0  0  0  0  0  0  0  0  0  0
   -9.2599    8.4973   -9.5241 H   0  0  0  0  0  0  0  0  0  0  0  0
   -8.3375    2.2473   -7.0043 H   0  0  0  0  0  0  0  0  0  0  0  0
   -9.9034    2.9436   -6.4662 H   0  0  0  0  0  0  0  0  0  0  0  0
   -9.8630    1.7638   -7.8202 H   0  0  0  0  0  0  0  0  0  0  0  0
  1  3  1  0  0  0  0
  1  5  2  0  0  0  0
  2  4  2  0  0  0  0
  2  5  1  0  0  0  0
  3  6  2  0  0  0  0
  4  6  1  0  0  0  0
  5  7  1  0  0  0  0
  6 14  1  0  0  0  0
  7 15  2  0  0  0  0
  7 16  1  0  0  0  0
  8  9  1  0  0  0  0
  8 10  1  0  0  0  0
  8 16  2  0  0  0  0
  9 17  2  0  0  0  0
  9 18  1  0  0  0  0
 10 19  1  0  0  0  0
 10 20  2  0  0  0  0
 11 17  1  0  0  0  0
 11 19  1  0  0  0  0
 11 21  2  0  0  0  0
 12 18  1  0  0  0  0
 13 19  1  0  0  0  0
 14 22  1  0  0  0  0
 14 23  1  0  0  0  0
 14 24  1  0  0  0  0
 15 18  1  0  0  0  0
  1 25  1  0  0  0  0
  2 26  1  0  0  0  0
  3 27  1  0  0  0  0
  4 28  1  0  0  0  0
 12 29  1  0  0  0  0
 12 30  1  0  0  0  0
 12 31  1  0  0  0  0
 13 32  1  0  0  0  0
 13 33  1  0  0  0  0
 13 34  1  0  0  0  0
M  END
> <id>
EN300-18666475

> <smiles>
CN1N=C(N=C2C(=O)N(C)C(=O)N=C12)C=3C=CC(=CC3)C(F)(F)F

> <MDLNUMBER>
MFCD07188899

> <IUPAC Name>
1,6-dimethyl-3-[4-(trifluoromethyl)phenyl]-1H,5H,6H,7H-pyrimido[5,4-e][1,2,4]triazine-5,7-dione

> <CAS>
878419-78-4

> <URL>
https://www.enaminestore.com/catalog/EN300-18666475

> <ROCS_ShapeQuery>
_x0404_0B

> <ROCS_TanimotoCombo>
0.429 

> <ROCS_ShapeTanimoto>
0.383 

> <ROCS_ColorTanimoto>
0.046 

> <ROCS_RefTversky>
0.336 

> <ROCS_RefColorTversky>
0.052 

> <ROCS_RefTverskyCombo>
0.388 

> <ROCS_FitTversky>
1.572 

> <ROCS_FitColorTversky>
0.303 

> <ROCS_FitTverskyCombo>
1.875 

> <ROCS_ColorScore>
-3.748

> <ROCS_Overlap>
2243.616

> <ROCS_Rank>
456                 

$$$$
untitled-dbase-91705_5618
  -OEChem-08222312023D

 52 54  0     0  0  0  0  0  0999 V2000
   -9.1434    2.2129   -7.7265 C   0  0  0  0  0  0  0  0  0  0  0  0
   -9.1418    3.4090   -7.0400 C   0  0  0  0  0  0  0  0  0  0  0  0
   -8.9611    4.1984   -9.0782 C   0  0  0  0  0  0  0  0  0  0  0  0
   -8.4226    5.5626  -17.5851 C   0  0  0  0  0  0  0  0  0  0  0  0
  -10.0331    5.0230  -11.2025 C   0  0  0  0  0  0  0  0  0  0  0  0
   -7.5183    5.0857  -11.0418 C   0  0  0  0  0  0  0  0  0  0  0  0
   -9.9682    5.9663  -12.4112 C   0  0  0  0  0  0  0  0  0  0  0  0
   -7.4653    6.0831  -12.2045 C   0  0  0  0  0  0  0  0  0  0  0  0
   -8.6268    7.0862  -14.2195 C   0  0  0  0  0  0  0  0  0  0  0  0
   -8.4868    4.5521  -13.9508 C   0  0  0  0  0  0  0  0  0  0  0  0
   -7.8545    6.7619  -15.4926 C   0  0  0  0  0  0  0  0  0  0  0  0
   -9.0659    4.5792  -15.3622 C   0  0  0  0  0  0  0  0  0  0  0  0
   -8.8360    5.1829  -10.2427 C   0  0  0  0  0  0  0  0  0  0  0  0
   -8.6373    5.9084  -13.2027 C   0  0  0  0  0  0  0  0  0  0  0  0
   -7.2342    4.8110  -20.0765 C   0  0  0  0  0  0  0  0  0  0  0  0
   -5.3188    6.2873  -19.3973 C   0  0  0  0  0  0  0  0  0  0  0  0
   -5.8978    4.2734  -18.0126 C   0  0  0  0  0  0  0  0  0  0  0  0
   -6.4490    5.3887  -18.8998 C   0  0  0  0  0  0  0  0  0  0  0  0
   -9.0369    4.5486   -7.8134 N   0  0  0  0  0  0  0  0  0  0  0  0
   -8.4445    5.6187  -16.1883 N   0  0  0  0  0  0  0  0  0  0  0  0
   -9.2764    5.0019  -18.2696 O   0  0  0  0  0  0  0  0  0  0  0  0
   -8.8930    6.5124   -9.6975 O   0  0  0  0  0  0  0  0  0  0  0  0
   -7.3322    6.1998  -18.1168 O   0  0  0  0  0  0  0  0  0  0  0  0
   -9.0106    2.5153   -9.4094 S   0  0  0  0  0  0  0  0  0  0  0  0
   -9.2694    3.5250   -5.1533 Br  0  0  0  0  0  0  0  0  0  0  0  0
   -9.2135    1.2057   -7.3407 H   0  0  0  0  0  0  0  0  0  0  0  0
  -10.9686    5.2246  -10.6656 H   0  0  0  0  0  0  0  0  0  0  0  0
  -10.0963    3.9881  -11.5586 H   0  0  0  0  0  0  0  0  0  0  0  0
   -7.3873    4.0720  -11.4312 H   0  0  0  0  0  0  0  0  0  0  0  0
   -6.6682    5.2860  -10.3819 H   0  0  0  0  0  0  0  0  0  0  0  0
  -10.8279    5.7492  -13.0610 H   0  0  0  0  0  0  0  0  0  0  0  0
  -10.1315    6.9960  -12.0547 H   0  0  0  0  0  0  0  0  0  0  0  0
   -7.4792    7.0998  -11.7983 H   0  0  0  0  0  0  0  0  0  0  0  0
   -6.5073    5.9711  -12.7217 H   0  0  0  0  0  0  0  0  0  0  0  0
   -8.1703    7.9657  -13.7510 H   0  0  0  0  0  0  0  0  0  0  0  0
   -9.6518    7.3684  -14.4800 H   0  0  0  0  0  0  0  0  0  0  0  0
   -8.9551    3.7370  -13.3934 H   0  0  0  0  0  0  0  0  0  0  0  0
   -7.4219    4.2998  -14.0230 H   0  0  0  0  0  0  0  0  0  0  0  0
   -7.8632    7.6067  -16.1877 H   0  0  0  0  0  0  0  0  0  0  0  0
   -6.8086    6.5602  -15.2457 H   0  0  0  0  0  0  0  0  0  0  0  0
   -8.9450    3.5898  -15.8177 H   0  0  0  0  0  0  0  0  0  0  0  0
  -10.1440    4.7833  -15.3429 H   0  0  0  0  0  0  0  0  0  0  0  0
   -8.0464    4.1654  -19.7236 H   0  0  0  0  0  0  0  0  0  0  0  0
   -7.6642    5.6008  -20.7011 H   0  0  0  0  0  0  0  0  0  0  0  0
   -6.5917    4.1839  -20.7051 H   0  0  0  0  0  0  0  0  0  0  0  0
   -4.7528    6.7040  -18.5564 H   0  0  0  0  0  0  0  0  0  0  0  0
   -5.7170    7.1425  -19.9553 H   0  0  0  0  0  0  0  0  0  0  0  0
   -4.6253    5.7426  -20.0460 H   0  0  0  0  0  0  0  0  0  0  0  0
   -5.3345    4.6875  -17.1685 H   0  0  0  0  0  0  0  0  0  0  0  0
   -6.6983    3.6403  -17.6165 H   0  0  0  0  0  0  0  0  0  0  0  0
   -5.1979    3.6413  -18.5710 H   0  0  0  0  0  0  0  0  0  0  0  0
   -9.7502    6.5911   -9.2510 H   0  0  0  0  0  0  0  0  0  0  0  0
  1  2  2  0  0  0  0
  1 24  1  0  0  0  0
  2 19  1  0  0  0  0
  2 25  1  0  0  0  0
  3 13  1  0  0  0  0
  3 19  2  0  0  0  0
  3 24  1  0  0  0  0
  4 20  1  0  0  0  0
  4 21  2  0  0  0  0
  4 23  1  0  0  0  0
  5  7  1  0  0  0  0
  5 13  1  0  0  0  0
  6  8  1  0  0  0  0
  6 13  1  0  0  0  0
  7 14  1  0  0  0  0
  8 14  1  0  0  0  0
  9 11  1  0  0  0  0
  9 14  1  0  0  0  0
 10 12  1  0  0  0  0
 10 14  1  0  0  0  0
 11 20  1  0  0  0  0
 12 20  1  0  0  0  0
 13 22  1  0  0  0  0
 15 18  1  0  0  0  0
 16 18  1  0  0  0  0
 17 18  1  0  0  0  0
 18 23  1  0  0  0  0
  1 26  1  0  0  0  0
  5 27  1  0  0  0  0
  5 28  1  0  0  0  0
  6 29  1  0  0  0  0
  6 30  1  0  0  0  0
  7 31  1  0  0  0  0
  7 32  1  0  0  0  0
  8 33  1  0  0  0  0
  8 34  1  0  0  0  0
  9 35  1  0  0  0  0
  9 36  1  0  0  0  0
 10 37  1  0  0  0  0
 10 38  1  0  0  0  0
 11 39  1  0  0  0  0
 11 40  1  0  0  0  0
 12 41  1  0  0  0  0
 12 42  1  0  0  0  0
 15 43  1  0  0  0  0
 15 44  1  0  0  0  0
 15 45  1  0  0  0  0
 16 46  1  0  0  0  0
 16 47  1  0  0  0  0
 16 48  1  0  0  0  0
 17 49  1  0  0  0  0
 17 50  1  0  0  0  0
 17 51  1  0  0  0  0
 22 52  1  0  0  0  0
M  END
> <id>
EN300-7428352

> <smiles>
CC(C)(C)OC(=O)N1CCC2(CC1)CCC(O)(CC2)C3=NC(Br)=CS3

> <IUPAC Name>
tert-butyl 9-(4-bromo-1,3-thiazol-2-yl)-9-hydroxy-3-azaspiro[5.5]undecane-3-carboxylate

> <CAS>
2309449-84-9

> <URL>
https://www.enaminestore.com/catalog/EN300-7428352

> <ROCS_ShapeQuery>
_x0404_0B

> <ROCS_TanimotoCombo>
0.429 

> <ROCS_ShapeTanimoto>
0.380 

> <ROCS_ColorTanimoto>
0.048 

> <ROCS_RefTversky>
0.332 

> <ROCS_RefColorTversky>
0.054 

> <ROCS_RefTverskyCombo>
0.386 

> <ROCS_FitTversky>
1.616 

> <ROCS_FitColorTversky>
0.317 

> <ROCS_FitTverskyCombo>
1.932 

> <ROCS_ColorScore>
-3.904

> <ROCS_Overlap>
2219.189

> <ROCS_Rank>
457                 

$$$$
untitled-dbase-66411_518
  -OEChem-08222312023D

 47 48  0     0  0  0  0  0  0999 V2000
  -10.2024    5.7416  -16.3163 C   0  0  0  0  0  0  0  0  0  0  0  0
   -9.6967    5.2099  -17.4895 C   0  0  0  0  0  0  0  0  0  0  0  0
   -9.3055    6.0994  -15.3299 C   0  0  0  0  0  0  0  0  0  0  0  0
   -8.3276    5.0714  -17.5988 C   0  0  0  0  0  0  0  0  0  0  0  0
   -9.7679    6.6713  -14.0598 C   0  0  0  0  0  0  0  0  0  0  0  0
   -9.0406    5.0220   -8.8871 C   0  0  0  0  0  0  0  0  0  0  0  0
   -8.9776    7.4077  -11.8430 C   0  0  0  0  0  0  0  0  0  0  0  0
   -9.5136    6.7941  -10.5630 C   0  0  0  0  0  0  0  0  0  0  0  0
   -8.2146    5.2408  -12.6381 C   0  0  0  0  0  0  0  0  0  0  0  0
   -8.6865    4.5073  -11.3514 C   0  0  0  0  0  0  0  0  0  0  0  0
   -7.5598    3.5006  -11.0198 C   0  0  0  0  0  0  0  0  0  0  0  0
   -9.9794    3.7241  -11.6527 C   0  0  0  0  0  0  0  0  0  0  0  0
  -10.4532    3.6613   -6.7958 C   0  0  0  0  0  0  0  0  0  0  0  0
   -9.2716    1.5938   -7.5947 C   0  0  0  0  0  0  0  0  0  0  0  0
   -7.9421    3.5251   -6.6942 C   0  0  0  0  0  0  0  0  0  0  0  0
   -9.1945    3.1136   -7.4669 C   0  0  0  0  0  0  0  0  0  0  0  0
   -7.9703    5.9527  -15.4640 N   0  0  0  0  0  0  0  0  0  0  0  0
   -7.4734    5.4304  -16.6173 N   0  0  0  0  0  0  0  0  0  0  0  0
   -9.0037    6.4344  -12.9169 N   0  0  0  0  0  0  0  0  0  0  0  0
   -8.9524    5.4709  -10.2268 N   0  0  0  0  0  0  0  0  0  0  0  0
  -10.8091    7.3244  -14.1049 O   0  0  0  0  0  0  0  0  0  0  0  0
   -9.0471    5.7456   -7.8945 O   0  0  0  0  0  0  0  0  0  0  0  0
   -9.1118    3.6544   -8.7910 O   0  0  0  0  0  0  0  0  0  0  0  0
   -7.5956    4.4253  -19.0055 Cl  0  0  0  0  0  0  0  0  0  0  0  0
  -11.2722    5.8686  -16.1867 H   0  0  0  0  0  0  0  0  0  0  0  0
  -10.3661    4.9152  -18.2904 H   0  0  0  0  0  0  0  0  0  0  0  0
   -9.5897    8.2569  -12.1400 H   0  0  0  0  0  0  0  0  0  0  0  0
   -7.9555    7.7472  -11.6955 H   0  0  0  0  0  0  0  0  0  0  0  0
   -9.3064    7.4547   -9.6942 H   0  0  0  0  0  0  0  0  0  0  0  0
  -10.6192    6.7504  -10.6281 H   0  0  0  0  0  0  0  0  0  0  0  0
   -7.1721    5.5694  -12.5364 H   0  0  0  0  0  0  0  0  0  0  0  0
   -8.2407    4.5631  -13.4996 H   0  0  0  0  0  0  0  0  0  0  0  0
   -7.8274    2.9506  -10.1247 H   0  0  0  0  0  0  0  0  0  0  0  0
   -6.6359    4.0433  -10.8553 H   0  0  0  0  0  0  0  0  0  0  0  0
   -7.4406    2.8148  -11.8509 H   0  0  0  0  0  0  0  0  0  0  0  0
  -10.3028    3.2154  -10.7521 H   0  0  0  0  0  0  0  0  0  0  0  0
   -9.7804    2.9998  -12.4337 H   0  0  0  0  0  0  0  0  0  0  0  0
  -10.7452    4.4178  -11.9794 H   0  0  0  0  0  0  0  0  0  0  0  0
  -10.4018    4.7520   -6.7022 H   0  0  0  0  0  0  0  0  0  0  0  0
  -11.3558    3.4029   -7.3591 H   0  0  0  0  0  0  0  0  0  0  0  0
  -10.5562    3.2683   -5.7778 H   0  0  0  0  0  0  0  0  0  0  0  0
   -8.3705    1.1965   -8.0757 H   0  0  0  0  0  0  0  0  0  0  0  0
  -10.1157    1.2977   -8.2280 H   0  0  0  0  0  0  0  0  0  0  0  0
   -9.3848    1.1115   -6.6184 H   0  0  0  0  0  0  0  0  0  0  0  0
   -7.0391    3.1323   -7.1754 H   0  0  0  0  0  0  0  0  0  0  0  0
   -7.8508    4.6138   -6.6244 H   0  0  0  0  0  0  0  0  0  0  0  0
   -7.9567    3.1110   -5.6795 H   0  0  0  0  0  0  0  0  0  0  0  0
  1  2  1  0  0  0  0
  1  3  2  0  0  0  0
  2  4  2  0  0  0  0
  3  5  1  0  0  0  0
  3 17  1  0  0  0  0
  4 18  1  0  0  0  0
  4 24  1  0  0  0  0
  5 19  1  0  0  0  0
  5 21  2  0  0  0  0
  6 20  1  0  0  0  0
  6 22  2  0  0  0  0
  6 23  1  0  0  0  0
  7  8  1  0  0  0  0
  7 19  1  0  0  0  0
  8 20  1  0  0  0  0
  9 10  1  0  0  0  0
  9 19  1  0  0  0  0
 10 11  1  0  0  0  0
 10 12  1  0  0  0  0
 10 20  1  0  0  0  0
 13 16  1  0  0  0  0
 14 16  1  0  0  0  0
 15 16  1  0  0  0  0
 16 23  1  0  0  0  0
 17 18  2  0  0  0  0
  1 25  1  0  0  0  0
  2 26  1  0  0  0  0
  7 27  1  0  0  0  0
  7 28  1  0  0  0  0
  8 29  1  0  0  0  0
  8 30  1  0  0  0  0
  9 31  1  0  0  0  0
  9 32  1  0  0  0  0
 11 33  1  0  0  0  0
 11 34  1  0  0  0  0
 11 35  1  0  0  0  0
 12 36  1  0  0  0  0
 12 37  1  0  0  0  0
 12 38  1  0  0  0  0
 13 39  1  0  0  0  0
 13 40  1  0  0  0  0
 13 41  1  0  0  0  0
 14 42  1  0  0  0  0
 14 43  1  0  0  0  0
 14 44  1  0  0  0  0
 15 45  1  0  0  0  0
 15 46  1  0  0  0  0
 15 47  1  0  0  0  0
M  END
> <id>
EN300-7446757

> <smiles>
CC(C)(C)OC(=O)N1CCN(CC1(C)C)C(=O)C=2C=CC(Cl)=NN2

> <MDLNUMBER>
MFCD32219643

> <IUPAC Name>
tert-butyl 4-(6-chloropyridazine-3-carbonyl)-2,2-dimethylpiperazine-1-carboxylate

> <CAS>
2402837-39-0

> <Purity>
95

> <URL>
https://www.enaminestore.com/catalog/EN300-7446757

> <ROCS_ShapeQuery>
_x0404_0B

> <ROCS_TanimotoCombo>
0.429 

> <ROCS_ShapeTanimoto>
0.361 

> <ROCS_ColorTanimoto>
0.067 

> <ROCS_RefTversky>
0.319 

> <ROCS_RefColorTversky>
0.073 

> <ROCS_RefTverskyCombo>
0.393 

> <ROCS_FitTversky>
1.569 

> <ROCS_FitColorTversky>
0.454 

> <ROCS_FitTverskyCombo>
2.023 

> <ROCS_ColorScore>
-5.299

> <ROCS_Overlap>
2133.670

> <ROCS_Rank>
458                 

$$$$
untitled-dbase-90771_2183
  -OEChem-08222312023D

 50 52  0     0  0  0  0  0  0999 V2000
   -8.7895    5.5587  -16.6708 C   0  0  0  0  0  0  0  0  0  0  0  0
   -7.4768    5.1465  -16.7655 C   0  0  0  0  0  0  0  0  0  0  0  0
   -7.9757    4.2189  -14.8418 C   0  0  0  0  0  0  0  0  0  0  0  0
   -9.7465    3.1455   -8.2123 C   0  0  0  0  0  0  0  0  0  0  0  0
   -6.7455    3.9917  -12.6062 C   0  0  0  0  0  0  0  0  0  0  0  0
   -9.1394    3.2373  -12.7130 C   0  0  0  0  0  0  0  0  0  0  0  0
   -7.1825    5.2752  -11.9026 C   0  0  0  0  0  0  0  0  0  0  0  0
   -9.5711    4.4941  -11.9509 C   0  0  0  0  0  0  0  0  0  0  0  0
   -9.8033    5.6210   -8.6002 C   0  0  0  0  0  0  0  0  0  0  0  0
   -8.1781    4.2066   -9.8253 C   0  0  0  0  0  0  0  0  0  0  0  0
   -8.9831    6.6865   -9.3064 C   0  0  0  0  0  0  0  0  0  0  0  0
   -7.8432    3.4229  -13.5401 C   0  0  0  0  0  0  0  0  0  0  0  0
   -8.4608    5.0928  -11.0623 C   0  0  0  0  0  0  0  0  0  0  0  0
   -9.5779    2.6387   -5.4025 C   0  0  0  0  0  0  0  0  0  0  0  0
  -12.0530    3.0651   -5.3635 C   0  0  0  0  0  0  0  0  0  0  0  0
  -11.1353    1.1462   -6.6991 C   0  0  0  0  0  0  0  0  0  0  0  0
  -10.8777    2.5681   -6.2026 C   0  0  0  0  0  0  0  0  0  0  0  0
   -7.0083    4.3785  -15.7175 N   0  0  0  0  0  0  0  0  0  0  0  0
   -9.2666    4.2870   -8.8556 N   0  0  0  0  0  0  0  0  0  0  0  0
   -9.3195    2.0086   -8.4021 O   0  0  0  0  0  0  0  0  0  0  0  0
   -8.9020    6.4191  -10.7024 O   0  0  0  0  0  0  0  0  0  0  0  0
   -7.4298    2.1096  -13.9567 O   0  0  0  0  0  0  0  0  0  0  0  0
  -10.7617    3.4334   -7.3377 O   0  0  0  0  0  0  0  0  0  0  0  0
   -9.4754    4.9647  -15.2154 S   0  0  0  0  0  0  0  0  0  0  0  0
   -6.3511    5.5883  -18.2239 Br  0  0  0  0  0  0  0  0  0  0  0  0
   -9.3665    6.1600  -17.3591 H   0  0  0  0  0  0  0  0  0  0  0  0
   -5.8346    4.1896  -13.1821 H   0  0  0  0  0  0  0  0  0  0  0  0
   -6.4881    3.2491  -11.8428 H   0  0  0  0  0  0  0  0  0  0  0  0
   -9.0028    2.4232  -11.9859 H   0  0  0  0  0  0  0  0  0  0  0  0
   -9.9592    2.9251  -13.3772 H   0  0  0  0  0  0  0  0  0  0  0  0
   -6.3650    5.6326  -11.2568 H   0  0  0  0  0  0  0  0  0  0  0  0
   -7.3151    6.0549  -12.6664 H   0  0  0  0  0  0  0  0  0  0  0  0
   -9.8960    5.2423  -12.6934 H   0  0  0  0  0  0  0  0  0  0  0  0
  -10.4587    4.2638  -11.3384 H   0  0  0  0  0  0  0  0  0  0  0  0
   -9.8644    5.8388   -7.5258 H   0  0  0  0  0  0  0  0  0  0  0  0
  -10.8327    5.6189   -8.9901 H   0  0  0  0  0  0  0  0  0  0  0  0
   -8.1182    3.1512  -10.1218 H   0  0  0  0  0  0  0  0  0  0  0  0
   -7.2202    4.4714   -9.3634 H   0  0  0  0  0  0  0  0  0  0  0  0
   -9.4684    7.6587   -9.1884 H   0  0  0  0  0  0  0  0  0  0  0  0
   -7.9822    6.7736   -8.8778 H   0  0  0  0  0  0  0  0  0  0  0  0
   -8.7319    2.2829   -6.0013 H   0  0  0  0  0  0  0  0  0  0  0  0
   -9.3637    3.6598   -5.0703 H   0  0  0  0  0  0  0  0  0  0  0  0
   -9.6263    1.9906   -4.5199 H   0  0  0  0  0  0  0  0  0  0  0  0
  -12.9877    3.0162   -5.9337 H   0  0  0  0  0  0  0  0  0  0  0  0
  -11.9164    4.1161   -5.0843 H   0  0  0  0  0  0  0  0  0  0  0  0
  -12.1738    2.4762   -4.4486 H   0  0  0  0  0  0  0  0  0  0  0  0
  -12.0676    1.0952   -7.2731 H   0  0  0  0  0  0  0  0  0  0  0  0
  -10.3188    0.7864   -7.3336 H   0  0  0  0  0  0  0  0  0  0  0  0
  -11.2525    0.4546   -5.8569 H   0  0  0  0  0  0  0  0  0  0  0  0
   -6.5860    2.2200  -14.4217 H   0  0  0  0  0  0  0  0  0  0  0  0
  1  2  2  0  0  0  0
  1 24  1  0  0  0  0
  2 18  1  0  0  0  0
  2 25  1  0  0  0  0
  3 12  1  0  0  0  0
  3 18  2  0  0  0  0
  3 24  1  0  0  0  0
  4 19  1  0  0  0  0
  4 20  2  0  0  0  0
  4 23  1  0  0  0  0
  5  7  1  0  0  0  0
  5 12  1  0  0  0  0
  6  8  1  0  0  0  0
  6 12  1  0  0  0  0
  7 13  1  0  0  0  0
  8 13  1  0  0  0  0
  9 11  1  0  0  0  0
  9 19  1  0  0  0  0
 10 13  1  0  0  0  0
 10 19  1  0  0  0  0
 11 21  1  0  0  0  0
 12 22  1  0  0  0  0
 13 21  1  0  0  0  0
 14 17  1  0  0  0  0
 15 17  1  0  0  0  0
 16 17  1  0  0  0  0
 17 23  1  0  0  0  0
  1 26  1  0  0  0  0
  5 27  1  0  0  0  0
  5 28  1  0  0  0  0
  6 29  1  0  0  0  0
  6 30  1  0  0  0  0
  7 31  1  0  0  0  0
  7 32  1  0  0  0  0
  8 33  1  0  0  0  0
  8 34  1  0  0  0  0
  9 35  1  0  0  0  0
  9 36  1  0  0  0  0
 10 37  1  0  0  0  0
 10 38  1  0  0  0  0
 11 39  1  0  0  0  0
 11 40  1  0  0  0  0
 14 41  1  0  0  0  0
 14 42  1  0  0  0  0
 14 43  1  0  0  0  0
 15 44  1  0  0  0  0
 15 45  1  0  0  0  0
 15 46  1  0  0  0  0
 16 47  1  0  0  0  0
 16 48  1  0  0  0  0
 16 49  1  0  0  0  0
 22 50  1  0  0  0  0
M  END
> <id>
EN300-7429096

> <smiles>
CC(C)(C)OC(=O)N1CCOC2(CCC(O)(CC2)C3=NC(Br)=CS3)C1

> <IUPAC Name>
tert-butyl 9-(4-bromo-1,3-thiazol-2-yl)-9-hydroxy-1-oxa-4-azaspiro[5.5]undecane-4-carboxylate

> <CAS>
2309468-50-4

> <URL>
https://www.enaminestore.com/catalog/EN300-7429096

> <ROCS_ShapeQuery>
_x0404_0B

> <ROCS_TanimotoCombo>
0.429 

> <ROCS_ShapeTanimoto>
0.318 

> <ROCS_ColorTanimoto>
0.111 

> <ROCS_RefTversky>
0.291 

> <ROCS_RefColorTversky>
0.118 

> <ROCS_RefTverskyCombo>
0.409 

> <ROCS_FitTversky>
1.404 

> <ROCS_FitColorTversky>
0.644 

> <ROCS_FitTverskyCombo>
2.048 

> <ROCS_ColorScore>
-8.559

> <ROCS_Overlap>
1944.133

> <ROCS_Rank>
459                 

$$$$
untitled-dbase-6599_15
  -OEChem-08222312023D

 44 47  0     0  0  0  0  0  0999 V2000
   -7.3704    5.5010  -16.5146 C   0  0  0  0  0  0  0  0  0  0  0  0
   -7.4782    5.7872  -15.1538 C   0  0  0  0  0  0  0  0  0  0  0  0
   -9.2671    4.0133  -16.3520 C   0  0  0  0  0  0  0  0  0  0  0  0
   -8.6315    4.7672  -10.6893 C   0  0  0  0  0  0  0  0  0  0  0  0
   -8.5789    3.9482   -9.5013 C   0  0  0  0  0  0  0  0  0  0  0  0
   -8.2649    4.6140  -17.1138 C   0  0  0  0  0  0  0  0  0  0  0  0
   -9.3749    4.2996  -14.9911 C   0  0  0  0  0  0  0  0  0  0  0  0
   -8.4804    5.1865  -14.3920 C   0  0  0  0  0  0  0  0  0  0  0  0
   -8.8560    4.7022   -8.3709 C   0  0  0  0  0  0  0  0  0  0  0  0
   -8.9241    6.0851  -10.3994 C   0  0  0  0  0  0  0  0  0  0  0  0
   -8.4386    4.3996  -12.0922 C   0  0  0  0  0  0  0  0  0  0  0  0
   -8.8341    6.8052  -12.5183 C   0  0  0  0  0  0  0  0  0  0  0  0
   -8.2775    2.4776   -9.4263 C   0  0  0  0  0  0  0  0  0  0  0  0
   -8.9189    4.2240   -6.9510 C   0  0  0  0  0  0  0  0  0  0  0  0
   -9.4261    1.6610   -8.8294 C   0  0  0  0  0  0  0  0  0  0  0  0
   -9.9624    3.1216   -6.7628 C   0  0  0  0  0  0  0  0  0  0  0  0
   -9.5353    1.7550   -7.3049 C   0  0  0  0  0  0  0  0  0  0  0  0
   -8.1480    4.3062  -18.5685 C   0  0  0  0  0  0  0  0  0  0  0  0
  -10.4564    3.6392  -14.1988 C   0  0  0  0  0  0  0  0  0  0  0  0
   -9.0210    7.1184  -11.2709 N   0  0  0  0  0  0  0  0  0  0  0  0
   -8.5746    5.4946  -12.9914 N   0  0  0  0  0  0  0  0  0  0  0  0
   -8.2316    3.2371  -12.4296 O   0  0  0  0  0  0  0  0  0  0  0  0
   -9.1506    6.3420   -8.7327 S   0  0  0  0  0  0  0  0  0  0  0  0
   -8.8151    8.1648  -13.6410 S   0  0  0  0  0  0  0  0  0  0  0  0
   -6.5865    5.9737  -17.1003 H   0  0  0  0  0  0  0  0  0  0  0  0
   -6.7760    6.4810  -14.6981 H   0  0  0  0  0  0  0  0  0  0  0  0
   -9.9625    3.3205  -16.8202 H   0  0  0  0  0  0  0  0  0  0  0  0
   -8.0304    2.1072  -10.4295 H   0  0  0  0  0  0  0  0  0  0  0  0
   -7.3877    2.2985   -8.8182 H   0  0  0  0  0  0  0  0  0  0  0  0
   -7.9435    3.8295   -6.6387 H   0  0  0  0  0  0  0  0  0  0  0  0
   -9.1344    5.0713   -6.2882 H   0  0  0  0  0  0  0  0  0  0  0  0
  -10.3651    2.0450   -9.2488 H   0  0  0  0  0  0  0  0  0  0  0  0
   -9.3531    0.6100   -9.1356 H   0  0  0  0  0  0  0  0  0  0  0  0
  -10.2440    3.0319   -5.7062 H   0  0  0  0  0  0  0  0  0  0  0  0
  -10.8688    3.4213   -7.3042 H   0  0  0  0  0  0  0  0  0  0  0  0
  -10.2185    0.9808   -6.9349 H   0  0  0  0  0  0  0  0  0  0  0  0
   -8.5494    1.5209   -6.8838 H   0  0  0  0  0  0  0  0  0  0  0  0
   -7.4871    3.4449  -18.7246 H   0  0  0  0  0  0  0  0  0  0  0  0
   -9.1278    4.0770  -19.0072 H   0  0  0  0  0  0  0  0  0  0  0  0
   -7.7429    5.1612  -19.1253 H   0  0  0  0  0  0  0  0  0  0  0  0
  -10.0968    2.6910  -13.7835 H   0  0  0  0  0  0  0  0  0  0  0  0
  -10.7890    4.2797  -13.3731 H   0  0  0  0  0  0  0  0  0  0  0  0
  -11.3361    3.4377  -14.8219 H   0  0  0  0  0  0  0  0  0  0  0  0
   -9.0180    9.1149  -12.7241 H   0  0  0  0  0  0  0  0  0  0  0  0
  1  2  1  0  0  0  0
  1  6  2  0  0  0  0
  2  8  2  0  0  0  0
  3  6  1  0  0  0  0
  3  7  2  0  0  0  0
  4  5  1  0  0  0  0
  4 10  2  0  0  0  0
  4 11  1  0  0  0  0
  5  9  2  0  0  0  0
  5 13  1  0  0  0  0
  6 18  1  0  0  0  0
  7  8  1  0  0  0  0
  7 19  1  0  0  0  0
  8 21  1  0  0  0  0
  9 14  1  0  0  0  0
  9 23  1  0  0  0  0
 10 20  1  0  0  0  0
 10 23  1  0  0  0  0
 11 21  1  0  0  0  0
 11 22  2  0  0  0  0
 12 20  2  0  0  0  0
 12 21  1  0  0  0  0
 12 24  1  0  0  0  0
 13 15  1  0  0  0  0
 14 16  1  0  0  0  0
 15 17  1  0  0  0  0
 16 17  1  0  0  0  0
  1 25  1  0  0  0  0
  2 26  1  0  0  0  0
  3 27  1  0  0  0  0
 13 28  1  0  0  0  0
 13 29  1  0  0  0  0
 14 30  1  0  0  0  0
 14 31  1  0  0  0  0
 15 32  1  0  0  0  0
 15 33  1  0  0  0  0
 16 34  1  0  0  0  0
 16 35  1  0  0  0  0
 17 36  1  0  0  0  0
 17 37  1  0  0  0  0
 18 38  1  0  0  0  0
 18 39  1  0  0  0  0
 18 40  1  0  0  0  0
 19 41  1  0  0  0  0
 19 42  1  0  0  0  0
 19 43  1  0  0  0  0
 24 44  1  0  0  0  0
M  END
> <id>
EN300-03370

> <smiles>
CC=1C=CC(=C(C)C1)N2C(S)=NC=3SC=4CCCCCC4C3C2=O

> <MDLNUMBER>
MFCD03479184

> <IUPAC Name>
4-(2,4-dimethylphenyl)-5-sulfanyl-8-thia-4,6-diazatricyclo[7.5.0.0,2,7]tetradeca-1(9),2(7),5-trien-3-one

> <CAS>
519150-63-1

> <URL>
https://www.enaminestore.com/catalog/EN300-03370

> <ROCS_ShapeQuery>
_x0404_0B

> <ROCS_TanimotoCombo>
0.429 

> <ROCS_ShapeTanimoto>
0.366 

> <ROCS_ColorTanimoto>
0.062 

> <ROCS_RefTversky>
0.323 

> <ROCS_RefColorTversky>
0.067 

> <ROCS_RefTverskyCombo>
0.390 

> <ROCS_FitTversky>
1.575 

> <ROCS_FitColorTversky>
0.464 

> <ROCS_FitTverskyCombo>
2.039 

> <ROCS_ColorScore>
-4.849

> <ROCS_Overlap>
2158.417

> <ROCS_Rank>
460                 

$$$$
untitled-dbase-157005_23
  -OEChem-08222312023D

 36 37  0     0  0  0  0  0  0999 V2000
   -9.1227    3.1186   -8.7541 C   0  0  0  0  0  0  0  0  0  0  0  0
   -8.6652    6.8287   -8.4492 C   0  0  0  0  0  0  0  0  0  0  0  0
   -8.8097    5.4843   -8.0987 C   0  0  0  0  0  0  0  0  0  0  0  0
   -8.6781    7.2353   -9.7876 C   0  0  0  0  0  0  0  0  0  0  0  0
   -8.9728    4.4968   -9.0785 C   0  0  0  0  0  0  0  0  0  0  0  0
   -8.9883    4.8875  -10.4281 C   0  0  0  0  0  0  0  0  0  0  0  0
   -8.8418    6.2348  -10.7462 C   0  0  0  0  0  0  0  0  0  0  0  0
   -9.0741    4.9885  -12.5593 C   0  0  0  0  0  0  0  0  0  0  0  0
   -8.5933    5.3648  -14.9961 C   0  0  0  0  0  0  0  0  0  0  0  0
   -6.9052    5.2804  -17.3032 C   0  0  0  0  0  0  0  0  0  0  0  0
   -8.9398    4.4717  -18.5343 C   0  0  0  0  0  0  0  0  0  0  0  0
   -8.9397    6.7515  -17.4804 C   0  0  0  0  0  0  0  0  0  0  0  0
   -8.7930    7.4566  -12.9357 C   0  0  0  0  0  0  0  0  0  0  0  0
   -8.4315    5.3150  -17.3669 C   0  0  0  0  0  0  0  0  0  0  0  0
   -9.2447    1.9952   -8.4897 N   0  0  0  0  0  0  0  0  0  0  0  0
   -9.1312    4.1287  -11.5671 N   0  0  0  0  0  0  0  0  0  0  0  0
   -8.9005    6.2700  -12.1158 N   0  0  0  0  0  0  0  0  0  0  0  0
   -9.1707    4.7011  -13.8987 N   0  0  0  0  0  0  0  0  0  0  0  0
   -7.8739    6.3553  -14.9514 O   0  0  0  0  0  0  0  0  0  0  0  0
   -8.9511    4.7412  -16.1617 O   0  0  0  0  0  0  0  0  0  0  0  0
   -8.5409    7.5738   -7.6673 H   0  0  0  0  0  0  0  0  0  0  0  0
   -8.7941    5.2118   -7.0454 H   0  0  0  0  0  0  0  0  0  0  0  0
   -8.5648    8.2787  -10.0588 H   0  0  0  0  0  0  0  0  0  0  0  0
   -6.5364    5.8846  -16.4665 H   0  0  0  0  0  0  0  0  0  0  0  0
   -6.5294    4.2587  -17.1866 H   0  0  0  0  0  0  0  0  0  0  0  0
   -6.4661    5.7092  -18.2112 H   0  0  0  0  0  0  0  0  0  0  0  0
  -10.0345    4.4936  -18.5838 H   0  0  0  0  0  0  0  0  0  0  0  0
   -8.6575    3.4202  -18.4082 H   0  0  0  0  0  0  0  0  0  0  0  0
   -8.5423    4.8251  -19.4912 H   0  0  0  0  0  0  0  0  0  0  0  0
  -10.0345    6.7765  -17.5261 H   0  0  0  0  0  0  0  0  0  0  0  0
   -8.6153    7.3623  -16.6317 H   0  0  0  0  0  0  0  0  0  0  0  0
   -8.5809    7.2200  -18.4040 H   0  0  0  0  0  0  0  0  0  0  0  0
   -7.7368    7.6071  -13.1743 H   0  0  0  0  0  0  0  0  0  0  0  0
   -9.3761    7.3209  -13.8508 H   0  0  0  0  0  0  0  0  0  0  0  0
   -9.1874    8.3142  -12.3836 H   0  0  0  0  0  0  0  0  0  0  0  0
   -9.7521    3.8774  -14.1345 H   0  0  0  0  0  0  0  0  0  0  0  0
  1  5  1  0  0  0  0
  1 15  3  0  0  0  0
  2  3  2  0  0  0  0
  2  4  1  0  0  0  0
  3  5  1  0  0  0  0
  4  7  2  0  0  0  0
  5  6  2  0  0  0  0
  6  7  1  0  0  0  0
  6 16  1  0  0  0  0
  7 17  1  0  0  0  0
  8 16  2  0  0  0  0
  8 17  1  0  0  0  0
  8 18  1  0  0  0  0
  9 18  1  0  0  0  0
  9 19  2  0  0  0  0
  9 20  1  0  0  0  0
 10 14  1  0  0  0  0
 11 14  1  0  0  0  0
 12 14  1  0  0  0  0
 13 17  1  0  0  0  0
 14 20  1  0  0  0  0
  2 21  1  0  0  0  0
  3 22  1  0  0  0  0
  4 23  1  0  0  0  0
 10 24  1  0  0  0  0
 10 25  1  0  0  0  0
 10 26  1  0  0  0  0
 11 27  1  0  0  0  0
 11 28  1  0  0  0  0
 11 29  1  0  0  0  0
 12 30  1  0  0  0  0
 12 31  1  0  0  0  0
 12 32  1  0  0  0  0
 13 33  1  0  0  0  0
 13 34  1  0  0  0  0
 13 35  1  0  0  0  0
 18 36  1  0  0  0  0
M  END
> <id>
EN300-28283741

> <smiles>
CN1C(NC(=O)OC(C)(C)C)=NC=2C(C#N)=CC=CC12

> <IUPAC Name>
tert-butyl N-(4-cyano-1-methyl-1H-1,3-benzodiazol-2-yl)carbamate

> <CAS>
2680765-32-4

> <URL>
https://www.enaminestore.com/catalog/EN300-28283741

> <ROCS_ShapeQuery>
_x0404_0B

> <ROCS_TanimotoCombo>
0.429 

> <ROCS_ShapeTanimoto>
0.353 

> <ROCS_ColorTanimoto>
0.076 

> <ROCS_RefTversky>
0.309 

> <ROCS_RefColorTversky>
0.081 

> <ROCS_RefTverskyCombo>
0.390 

> <ROCS_FitTversky>
1.693 

> <ROCS_FitColorTversky>
0.515 

> <ROCS_FitTverskyCombo>
2.208 

> <ROCS_ColorScore>
-5.870

> <ROCS_Overlap>
2058.366

> <ROCS_Rank>
461                 

$$$$
untitled-dbase-90366_78
  -OEChem-08222312023D

 41 43  0     1  0  0  0  0  0999 V2000
   -9.3658    4.6740  -17.7194 C   0  0  0  0  0  0  0  0  0  0  0  0
   -7.3445    5.4876  -15.8832 C   0  0  0  0  0  0  0  0  0  0  0  0
   -9.6334    4.7416  -16.3444 C   0  0  0  0  0  0  0  0  0  0  0  0
   -8.6300    5.1412  -15.4724 C   0  0  0  0  0  0  0  0  0  0  0  0
   -8.0809    5.0170  -18.1602 C   0  0  0  0  0  0  0  0  0  0  0  0
   -7.0904    5.4160  -17.2574 C   0  0  0  0  0  0  0  0  0  0  0  0
   -9.1382    5.0433   -9.2342 C   0  0  0  0  0  0  0  0  0  0  0  0
   -8.7979    6.8670  -12.4100 C   0  0  0  0  0  0  0  0  0  0  0  0
   -8.5200    6.7718  -10.9179 C   0  0  0  0  0  0  0  0  0  0  0  0
   -9.2393    4.6250  -11.7250 C   0  0  0  0  0  0  0  0  0  0  0  0
   -8.6419    5.4153  -12.8999 C   0  0  1  0  0  0  0  0  0  0  0  0
   -8.5577    3.3534   -7.0034 C   0  0  0  0  0  0  0  0  0  0  0  0
   -9.3955    1.4742   -8.4442 C   0  0  0  0  0  0  0  0  0  0  0  0
   -7.3749    2.7875   -9.1518 C   0  0  0  0  0  0  0  0  0  0  0  0
   -8.7231    2.8453   -8.4349 C   0  0  0  0  0  0  0  0  0  0  0  0
  -10.7730    4.4722  -15.6334 N   0  0  0  0  0  0  0  0  0  0  0  0
  -10.5172    4.6893  -14.3479 N   0  0  0  0  0  0  0  0  0  0  0  0
   -9.2382    5.0884  -14.2516 N   0  0  0  0  0  0  0  0  0  0  0  0
   -8.9745    5.4440  -10.5491 N   0  0  0  0  0  0  0  0  0  0  0  0
   -8.9183    5.7611   -8.2612 O   0  0  0  0  0  0  0  0  0  0  0  0
   -9.5779    3.7497   -9.1435 O   0  0  0  0  0  0  0  0  0  0  0  0
   -7.8130    4.9561  -19.4735 F   0  0  0  0  0  0  0  0  0  0  0  0
   -5.5206    5.8300  -17.8402 Cl  0  0  0  0  0  0  0  0  0  0  0  0
  -10.1278    4.3656  -18.4271 H   0  0  0  0  0  0  0  0  0  0  0  0
   -6.5862    5.7952  -15.1716 H   0  0  0  0  0  0  0  0  0  0  0  0
   -9.8188    7.2301  -12.5838 H   0  0  0  0  0  0  0  0  0  0  0  0
   -8.1070    7.5471  -12.9180 H   0  0  0  0  0  0  0  0  0  0  0  0
   -7.4470    6.8280  -10.7045 H   0  0  0  0  0  0  0  0  0  0  0  0
   -9.0366    7.5384  -10.3329 H   0  0  0  0  0  0  0  0  0  0  0  0
  -10.3253    4.5000  -11.8107 H   0  0  0  0  0  0  0  0  0  0  0  0
   -8.7842    3.6355  -11.6144 H   0  0  0  0  0  0  0  0  0  0  0  0
   -7.5539    5.1634  -13.0060 H   0  0  0  0  0  0  0  0  0  0  0  0
   -8.0754    4.3374   -6.9925 H   0  0  0  0  0  0  0  0  0  0  0  0
   -9.5213    3.4327   -6.4896 H   0  0  0  0  0  0  0  0  0  0  0  0
   -7.9104    2.6855   -6.4237 H   0  0  0  0  0  0  0  0  0  0  0  0
   -9.5162    1.1057   -9.4693 H   0  0  0  0  0  0  0  0  0  0  0  0
  -10.4028    1.5305   -8.0158 H   0  0  0  0  0  0  0  0  0  0  0  0
   -8.8181    0.7372   -7.8766 H   0  0  0  0  0  0  0  0  0  0  0  0
   -7.4933    2.4231  -10.1786 H   0  0  0  0  0  0  0  0  0  0  0  0
   -6.8945    3.7707   -9.1872 H   0  0  0  0  0  0  0  0  0  0  0  0
   -6.6972    2.0866   -8.6511 H   0  0  0  0  0  0  0  0  0  0  0  0
  1  3  2  0  0  0  0
  1  5  1  0  0  0  0
  2  4  2  0  0  0  0
  2  6  1  0  0  0  0
  3  4  1  0  0  0  0
  3 16  1  0  0  0  0
  4 18  1  0  0  0  0
  5  6  2  0  0  0  0
  5 22  1  0  0  0  0
  6 23  1  0  0  0  0
  7 19  1  0  0  0  0
  7 20  2  0  0  0  0
  7 21  1  0  0  0  0
  8  9  1  0  0  0  0
  8 11  1  0  0  0  0
  9 19  1  0  0  0  0
 10 11  1  0  0  0  0
 10 19  1  0  0  0  0
 11 18  1  0  0  0  0
 12 15  1  0  0  0  0
 13 15  1  0  0  0  0
 14 15  1  0  0  0  0
 15 21  1  0  0  0  0
 16 17  2  0  0  0  0
 17 18  1  0  0  0  0
  1 24  1  0  0  0  0
  2 25  1  0  0  0  0
  8 26  1  0  0  0  0
  8 27  1  0  0  0  0
  9 28  1  0  0  0  0
  9 29  1  0  0  0  0
 10 30  1  0  0  0  0
 10 31  1  0  0  0  0
 11 32  1  0  0  0  0
 12 33  1  0  0  0  0
 12 34  1  0  0  0  0
 12 35  1  0  0  0  0
 13 36  1  0  0  0  0
 13 37  1  0  0  0  0
 13 38  1  0  0  0  0
 14 39  1  0  0  0  0
 14 40  1  0  0  0  0
 14 41  1  0  0  0  0
M  END
> <id>
EN300-6750354

> <smiles>
CC(C)(C)OC(=O)N1CCC(C1)N2N=NC=3C=C(F)C(Cl)=CC23

> <IUPAC Name>
tert-butyl 3-(6-chloro-5-fluoro-1H-1,2,3-benzotriazol-1-yl)pyrrolidine-1-carboxylate

> <CAS>
2287341-06-2

> <URL>
https://www.enaminestore.com/catalog/EN300-6750354

> <ROCS_ShapeQuery>
_x0404_0B

> <ROCS_TanimotoCombo>
0.429 

> <ROCS_ShapeTanimoto>
0.381 

> <ROCS_ColorTanimoto>
0.047 

> <ROCS_RefTversky>
0.332 

> <ROCS_RefColorTversky>
0.052 

> <ROCS_RefTverskyCombo>
0.384 

> <ROCS_FitTversky>
1.649 

> <ROCS_FitColorTversky>
0.348 

> <ROCS_FitTverskyCombo>
1.997 

> <ROCS_ColorScore>
-3.751

> <ROCS_Overlap>
2214.013

> <ROCS_Rank>
462                 

$$$$
untitled-dbase-51676_277
  -OEChem-08222312023D

 42 44  0     0  0  0  0  0  0999 V2000
   -9.7903    4.1261  -17.9919 C   0  0  0  0  0  0  0  0  0  0  0  0
   -9.7935    4.5567  -16.6652 C   0  0  0  0  0  0  0  0  0  0  0  0
   -8.7259    4.4579  -18.8303 C   0  0  0  0  0  0  0  0  0  0  0  0
   -7.6681    5.6509  -17.0151 C   0  0  0  0  0  0  0  0  0  0  0  0
   -8.7324    5.3191  -16.1768 C   0  0  0  0  0  0  0  0  0  0  0  0
   -7.6649    5.2203  -18.3419 C   0  0  0  0  0  0  0  0  0  0  0  0
   -8.7366    5.7700  -14.7861 C   0  0  0  0  0  0  0  0  0  0  0  0
   -8.7685    5.0288  -13.6700 C   0  0  0  0  0  0  0  0  0  0  0  0
   -8.6827    7.1950  -14.3592 C   0  0  0  0  0  0  0  0  0  0  0  0
   -8.9191    4.3709   -9.4202 C   0  0  0  0  0  0  0  0  0  0  0  0
   -7.7034    5.5498  -11.4017 C   0  0  0  0  0  0  0  0  0  0  0  0
   -9.8495    5.6330  -11.4343 C   0  0  0  0  0  0  0  0  0  0  0  0
   -8.7498    5.8929  -12.4801 C   0  0  0  0  0  0  0  0  0  0  0  0
   -9.6491    2.8004   -7.0493 C   0  0  0  0  0  0  0  0  0  0  0  0
  -11.6783    2.1439   -8.3761 C   0  0  0  0  0  0  0  0  0  0  0  0
   -9.3923    1.4777   -9.1752 C   0  0  0  0  0  0  0  0  0  0  0  0
  -10.2072    2.5471   -8.4490 C   0  0  0  0  0  0  0  0  0  0  0  0
   -8.8043    5.1531  -10.5454 N   0  0  0  0  0  0  0  0  0  0  0  0
   -8.6489    8.1643  -15.0975 O   0  0  0  0  0  0  0  0  0  0  0  0
   -8.0123    4.2483   -8.5968 O   0  0  0  0  0  0  0  0  0  0  0  0
   -8.6895    7.2423  -12.9920 O   0  0  0  0  0  0  0  0  0  0  0  0
   -8.7869    3.6717  -13.5387 O   0  0  0  0  0  0  0  0  0  0  0  0
  -10.1301    3.7693   -9.1999 O   0  0  0  0  0  0  0  0  0  0  0  0
   -6.3522    5.6292  -19.3771 Cl  0  0  0  0  0  0  0  0  0  0  0  0
  -10.6164    3.5325  -18.3723 H   0  0  0  0  0  0  0  0  0  0  0  0
  -10.6302    4.2899  -16.0240 H   0  0  0  0  0  0  0  0  0  0  0  0
   -8.7370    4.1155  -19.8619 H   0  0  0  0  0  0  0  0  0  0  0  0
   -6.8399    6.2458  -16.6348 H   0  0  0  0  0  0  0  0  0  0  0  0
   -7.0143    4.7263  -11.6168 H   0  0  0  0  0  0  0  0  0  0  0  0
   -7.1406    6.4026  -11.0074 H   0  0  0  0  0  0  0  0  0  0  0  0
  -10.3553    6.5270  -11.0555 H   0  0  0  0  0  0  0  0  0  0  0  0
  -10.5925    4.8637  -11.6684 H   0  0  0  0  0  0  0  0  0  0  0  0
   -8.5933    3.0900   -7.0973 H   0  0  0  0  0  0  0  0  0  0  0  0
  -10.2030    3.5898   -6.5310 H   0  0  0  0  0  0  0  0  0  0  0  0
   -9.6925    1.8901   -6.4404 H   0  0  0  0  0  0  0  0  0  0  0  0
  -12.0829    1.9612   -9.3782 H   0  0  0  0  0  0  0  0  0  0  0  0
  -12.2824    2.9484   -7.9413 H   0  0  0  0  0  0  0  0  0  0  0  0
  -11.8202    1.2401   -7.7748 H   0  0  0  0  0  0  0  0  0  0  0  0
   -9.7924    1.2959  -10.1792 H   0  0  0  0  0  0  0  0  0  0  0  0
   -8.3406    1.7669   -9.2695 H   0  0  0  0  0  0  0  0  0  0  0  0
   -9.4440    0.5206   -8.6437 H   0  0  0  0  0  0  0  0  0  0  0  0
   -8.7737    3.2443  -14.4069 H   0  0  0  0  0  0  0  0  0  0  0  0
  1  2  1  0  0  0  0
  1  3  2  0  0  0  0
  2  5  2  0  0  0  0
  3  6  1  0  0  0  0
  4  5  1  0  0  0  0
  4  6  2  0  0  0  0
  5  7  1  0  0  0  0
  6 24  1  0  0  0  0
  7  8  2  0  0  0  0
  7  9  1  0  0  0  0
  8 13  1  0  0  0  0
  8 22  1  0  0  0  0
  9 19  2  0  0  0  0
  9 21  1  0  0  0  0
 10 18  1  0  0  0  0
 10 20  2  0  0  0  0
 10 23  1  0  0  0  0
 11 13  1  0  0  0  0
 11 18  1  0  0  0  0
 12 13  1  0  0  0  0
 12 18  1  0  0  0  0
 13 21  1  0  0  0  0
 14 17  1  0  0  0  0
 15 17  1  0  0  0  0
 16 17  1  0  0  0  0
 17 23  1  0  0  0  0
  1 25  1  0  0  0  0
  2 26  1  0  0  0  0
  3 27  1  0  0  0  0
  4 28  1  0  0  0  0
 11 29  1  0  0  0  0
 11 30  1  0  0  0  0
 12 31  1  0  0  0  0
 12 32  1  0  0  0  0
 14 33  1  0  0  0  0
 14 34  1  0  0  0  0
 14 35  1  0  0  0  0
 15 36  1  0  0  0  0
 15 37  1  0  0  0  0
 15 38  1  0  0  0  0
 16 39  1  0  0  0  0
 16 40  1  0  0  0  0
 16 41  1  0  0  0  0
 22 42  1  0  0  0  0
M  END
> <id>
EN300-1645814

> <smiles>
CC(C)(C)OC(=O)N1CC2(C1)OC(=O)C(=C2O)C=3C=CC=C(Cl)C3

> <IUPAC Name>
tert-butyl 7-(3-chlorophenyl)-8-hydroxy-6-oxo-5-oxa-2-azaspiro[3.4]oct-7-ene-2-carboxylate

> <CAS>
2171899-94-6

> <URL>
https://www.enaminestore.com/catalog/EN300-1645814

> <ROCS_ShapeQuery>
_x0404_0B

> <ROCS_TanimotoCombo>
0.429 

> <ROCS_ShapeTanimoto>
0.379 

> <ROCS_ColorTanimoto>
0.050 

> <ROCS_RefTversky>
0.332 

> <ROCS_RefColorTversky>
0.054 

> <ROCS_RefTverskyCombo>
0.386 

> <ROCS_FitTversky>
1.601 

> <ROCS_FitColorTversky>
0.374 

> <ROCS_FitTverskyCombo>
1.975 

> <ROCS_ColorScore>
-3.907

> <ROCS_Overlap>
2216.478

> <ROCS_Rank>
463                 

$$$$
untitled-dbase-92380_514
  -OEChem-08222312023D

 53 55  0     0  0  0  0  0  0999 V2000
   -9.3591    5.5371  -16.3130 C   0  0  0  0  0  0  0  0  0  0  0  0
   -9.2131    4.8123  -15.1355 C   0  0  0  0  0  0  0  0  0  0  0  0
   -8.2633    5.6330  -17.1556 C   0  0  0  0  0  0  0  0  0  0  0  0
   -7.9930    4.2141  -14.8406 C   0  0  0  0  0  0  0  0  0  0  0  0
   -6.9585    4.3691  -15.7492 C   0  0  0  0  0  0  0  0  0  0  0  0
   -9.7367    3.1371   -8.2045 C   0  0  0  0  0  0  0  0  0  0  0  0
   -6.7544    3.9945  -12.6089 C   0  0  0  0  0  0  0  0  0  0  0  0
   -9.1449    3.2285  -12.7072 C   0  0  0  0  0  0  0  0  0  0  0  0
   -7.1953    5.2764  -11.9048 C   0  0  0  0  0  0  0  0  0  0  0  0
   -9.5802    4.4837  -11.9446 C   0  0  0  0  0  0  0  0  0  0  0  0
   -9.8068    5.6120   -8.5939 C   0  0  0  0  0  0  0  0  0  0  0  0
   -8.1788    4.2045   -9.8234 C   0  0  0  0  0  0  0  0  0  0  0  0
   -8.9941    6.6809   -9.3037 C   0  0  0  0  0  0  0  0  0  0  0  0
   -7.8524    3.4197  -13.5388 C   0  0  0  0  0  0  0  0  0  0  0  0
   -8.4698    5.0884  -11.0601 C   0  0  0  0  0  0  0  0  0  0  0  0
   -9.5564    2.6332   -5.3948 C   0  0  0  0  0  0  0  0  0  0  0  0
  -12.0333    3.0476   -5.3480 C   0  0  0  0  0  0  0  0  0  0  0  0
  -11.1108    1.1322   -6.6853 C   0  0  0  0  0  0  0  0  0  0  0  0
  -10.8585    2.5557   -6.1906 C   0  0  0  0  0  0  0  0  0  0  0  0
   -7.0625    5.0657  -16.9031 N   0  0  0  0  0  0  0  0  0  0  0  0
   -9.2645    4.2804   -8.8502 N   0  0  0  0  0  0  0  0  0  0  0  0
   -9.3049    2.0021   -8.3949 O   0  0  0  0  0  0  0  0  0  0  0  0
   -8.9162    6.4129  -10.6997 O   0  0  0  0  0  0  0  0  0  0  0  0
   -7.4340    2.1082  -13.9557 O   0  0  0  0  0  0  0  0  0  0  0  0
  -10.7504    3.4207   -7.3268 O   0  0  0  0  0  0  0  0  0  0  0  0
   -5.2584    3.5766  -15.4104 Br  0  0  0  0  0  0  0  0  0  0  0  0
  -10.3006    6.0123  -16.5633 H   0  0  0  0  0  0  0  0  0  0  0  0
  -10.0555    4.7202  -14.4553 H   0  0  0  0  0  0  0  0  0  0  0  0
   -8.3252    6.1877  -18.0861 H   0  0  0  0  0  0  0  0  0  0  0  0
   -5.8466    4.1976  -13.1881 H   0  0  0  0  0  0  0  0  0  0  0  0
   -6.4902    3.2528  -11.8469 H   0  0  0  0  0  0  0  0  0  0  0  0
   -9.0022    2.4147  -11.9813 H   0  0  0  0  0  0  0  0  0  0  0  0
   -9.9661    2.9135  -13.3686 H   0  0  0  0  0  0  0  0  0  0  0  0
   -6.3772    5.6389  -11.2625 H   0  0  0  0  0  0  0  0  0  0  0  0
   -7.3348    6.0545  -12.6688 H   0  0  0  0  0  0  0  0  0  0  0  0
   -9.9121    5.2292  -12.6868 H   0  0  0  0  0  0  0  0  0  0  0  0
  -10.4642    4.2491  -11.3288 H   0  0  0  0  0  0  0  0  0  0  0  0
   -9.8652    5.8301   -7.5194 H   0  0  0  0  0  0  0  0  0  0  0  0
  -10.8374    5.6043   -8.9810 H   0  0  0  0  0  0  0  0  0  0  0  0
   -8.1144    3.1491  -10.1194 H   0  0  0  0  0  0  0  0  0  0  0  0
   -7.2204    4.4744   -9.3652 H   0  0  0  0  0  0  0  0  0  0  0  0
   -9.4836    7.6507   -9.1844 H   0  0  0  0  0  0  0  0  0  0  0  0
   -7.9921    6.7738   -8.8784 H   0  0  0  0  0  0  0  0  0  0  0  0
   -8.7107    2.2809   -5.9962 H   0  0  0  0  0  0  0  0  0  0  0  0
   -9.3460    3.6555   -5.0641 H   0  0  0  0  0  0  0  0  0  0  0  0
   -9.5987    1.9855   -4.5117 H   0  0  0  0  0  0  0  0  0  0  0  0
  -12.9697    2.9937   -5.9151 H   0  0  0  0  0  0  0  0  0  0  0  0
  -11.9009    4.0995   -5.0701 H   0  0  0  0  0  0  0  0  0  0  0  0
  -12.1483    2.4588   -4.4323 H   0  0  0  0  0  0  0  0  0  0  0  0
  -12.0448    1.0763   -7.2561 H   0  0  0  0  0  0  0  0  0  0  0  0
  -10.2947    0.7759   -7.3222 H   0  0  0  0  0  0  0  0  0  0  0  0
  -11.2219    0.4407   -5.8422 H   0  0  0  0  0  0  0  0  0  0  0  0
   -7.3364    1.5802  -13.1483 H   0  0  0  0  0  0  0  0  0  0  0  0
  1  2  1  0  0  0  0
  1  3  2  0  0  0  0
  2  4  2  0  0  0  0
  3 20  1  0  0  0  0
  4  5  1  0  0  0  0
  4 14  1  0  0  0  0
  5 20  2  0  0  0  0
  5 26  1  0  0  0  0
  6 21  1  0  0  0  0
  6 22  2  0  0  0  0
  6 25  1  0  0  0  0
  7  9  1  0  0  0  0
  7 14  1  0  0  0  0
  8 10  1  0  0  0  0
  8 14  1  0  0  0  0
  9 15  1  0  0  0  0
 10 15  1  0  0  0  0
 11 13  1  0  0  0  0
 11 21  1  0  0  0  0
 12 15  1  0  0  0  0
 12 21  1  0  0  0  0
 13 23  1  0  0  0  0
 14 24  1  0  0  0  0
 15 23  1  0  0  0  0
 16 19  1  0  0  0  0
 17 19  1  0  0  0  0
 18 19  1  0  0  0  0
 19 25  1  0  0  0  0
  1 27  1  0  0  0  0
  2 28  1  0  0  0  0
  3 29  1  0  0  0  0
  7 30  1  0  0  0  0
  7 31  1  0  0  0  0
  8 32  1  0  0  0  0
  8 33  1  0  0  0  0
  9 34  1  0  0  0  0
  9 35  1  0  0  0  0
 10 36  1  0  0  0  0
 10 37  1  0  0  0  0
 11 38  1  0  0  0  0
 11 39  1  0  0  0  0
 12 40  1  0  0  0  0
 12 41  1  0  0  0  0
 13 42  1  0  0  0  0
 13 43  1  0  0  0  0
 16 44  1  0  0  0  0
 16 45  1  0  0  0  0
 16 46  1  0  0  0  0
 17 47  1  0  0  0  0
 17 48  1  0  0  0  0
 17 49  1  0  0  0  0
 18 50  1  0  0  0  0
 18 51  1  0  0  0  0
 18 52  1  0  0  0  0
 24 53  1  0  0  0  0
M  END
> <id>
EN300-7429094

> <smiles>
CC(C)(C)OC(=O)N1CCOC2(CCC(O)(CC2)C=3C=CC=NC3Br)C1

> <IUPAC Name>
tert-butyl 9-(2-bromopyridin-3-yl)-9-hydroxy-1-oxa-4-azaspiro[5.5]undecane-4-carboxylate

> <CAS>
2309474-20-0

> <URL>
https://www.enaminestore.com/catalog/EN300-7429094

> <ROCS_ShapeQuery>
_x0404_0B

> <ROCS_TanimotoCombo>
0.429 

> <ROCS_ShapeTanimoto>
0.315 

> <ROCS_ColorTanimoto>
0.113 

> <ROCS_RefTversky>
0.292 

> <ROCS_RefColorTversky>
0.120 

> <ROCS_RefTverskyCombo>
0.412 

> <ROCS_FitTversky>
1.348 

> <ROCS_FitColorTversky>
0.656 

> <ROCS_FitTverskyCombo>
2.004 

> <ROCS_ColorScore>
-8.709

> <ROCS_Overlap>
1949.155

> <ROCS_Rank>
464                 

$$$$
untitled-dbase-119341_35
  -OEChem-08222312023D

 49 53  0     1  0  0  0  0  0999 V2000
   -8.5919    3.8596   -6.4803 C   0  0  0  0  0  0  0  0  0  0  0  0
   -9.0688    2.5916   -6.8055 C   0  0  0  0  0  0  0  0  0  0  0  0
   -8.4625    4.8496   -7.4610 C   0  0  0  0  0  0  0  0  0  0  0  0
   -9.4324    2.2726   -8.1168 C   0  0  0  0  0  0  0  0  0  0  0  0
   -8.8196    4.5521   -8.7914 C   0  0  0  0  0  0  0  0  0  0  0  0
   -8.8210    5.2847  -10.0089 C   0  0  0  0  0  0  0  0  0  0  0  0
   -9.2989    3.2708   -9.0887 C   0  0  0  0  0  0  0  0  0  0  0  0
   -9.2897    4.4478  -10.9978 C   0  0  0  0  0  0  0  0  0  0  0  0
   -7.4600    2.3379  -15.5919 C   0  0  0  0  0  0  0  0  0  0  0  0
   -8.4480    6.6941  -10.3065 C   0  0  0  0  0  0  0  0  0  0  0  0
   -8.4202    6.5121  -16.3146 C   0  0  0  0  0  0  0  0  0  0  0  0
   -7.3571    5.8338  -17.1826 C   0  0  0  0  0  0  0  0  0  0  0  0
   -8.3745    4.0806  -13.2918 C   0  0  0  0  0  0  0  0  0  0  0  0
   -8.2965    6.9161  -11.8302 C   0  0  0  0  0  0  0  0  0  0  0  0
   -9.4242    6.6982  -13.9977 C   0  0  0  0  0  0  0  0  0  0  0  0
   -9.4398    4.8060  -12.4435 C   0  0  2  0  0  0  0  0  0  0  0  0
   -7.3638    3.8357  -15.6346 C   0  0  2  0  0  0  0  0  0  0  0  0
   -8.3398    6.0341  -14.8592 C   0  0  1  0  0  0  0  0  0  0  0  0
   -8.4535    4.4981  -14.7691 C   0  0  2  0  0  0  0  0  0  0  0  0
   -7.4380    4.3089  -17.0970 C   0  0  1  0  0  0  0  0  0  0  0  0
   -9.5821    3.2372  -10.4383 N   0  0  0  0  0  0  0  0  0  0  0  0
   -9.3998    6.2863  -12.5889 N   0  0  1  0  0  0  0  0  0  0  0  0
   -7.6305    1.6176  -16.5642 O   0  0  0  0  0  0  0  0  0  0  0  0
   -7.3343    1.8862  -14.3201 O   0  0  0  0  0  0  0  0  0  0  0  0
   -8.6700    3.9109  -17.7016 O   0  0  0  0  0  0  0  0  0  0  0  0
   -8.3176    4.0846   -5.4530 H   0  0  0  0  0  0  0  0  0  0  0  0
   -9.1610    1.8376   -6.0278 H   0  0  0  0  0  0  0  0  0  0  0  0
   -8.0910    5.8343   -7.1917 H   0  0  0  0  0  0  0  0  0  0  0  0
   -9.8048    1.2850   -8.3675 H   0  0  0  0  0  0  0  0  0  0  0  0
   -9.2020    7.3836   -9.9100 H   0  0  0  0  0  0  0  0  0  0  0  0
   -7.4964    6.9194   -9.8085 H   0  0  0  0  0  0  0  0  0  0  0  0
   -8.2777    7.5990  -16.3589 H   0  0  0  0  0  0  0  0  0  0  0  0
   -9.4188    6.3088  -16.7223 H   0  0  0  0  0  0  0  0  0  0  0  0
   -7.4966    6.1578  -18.2208 H   0  0  0  0  0  0  0  0  0  0  0  0
   -6.3618    6.1669  -16.8647 H   0  0  0  0  0  0  0  0  0  0  0  0
   -7.3682    4.2871  -12.8925 H   0  0  0  0  0  0  0  0  0  0  0  0
   -8.5189    2.9935  -13.2076 H   0  0  0  0  0  0  0  0  0  0  0  0
   -8.2543    7.9935  -12.0501 H   0  0  0  0  0  0  0  0  0  0  0  0
   -7.3306    6.4900  -12.1350 H   0  0  0  0  0  0  0  0  0  0  0  0
   -9.2831    7.8012  -14.0568 H   0  0  0  0  0  0  0  0  0  0  0  0
  -10.4326    6.5133  -14.4381 H   0  0  0  0  0  0  0  0  0  0  0  0
  -10.4404    4.4316  -12.7480 H   0  0  0  0  0  0  0  0  0  0  0  0
   -6.3757    4.0963  -15.2344 H   0  0  0  0  0  0  0  0  0  0  0  0
   -7.3638    6.3355  -14.4629 H   0  0  0  0  0  0  0  0  0  0  0  0
   -9.4382    4.1924  -15.1453 H   0  0  0  0  0  0  0  0  0  0  0  0
   -6.6263    3.8667  -17.6858 H   0  0  0  0  0  0  0  0  0  0  0  0
   -9.9492    2.4348  -10.9298 H   0  0  0  0  0  0  0  0  0  0  0  0
   -7.3964    0.9084  -14.2708 H   0  0  0  0  0  0  0  0  0  0  0  0
   -8.6356    4.2206  -18.6187 H   0  0  0  0  0  0  0  0  0  0  0  0
  1  2  2  0  0  0  0
  1  3  1  0  0  0  0
  2  4  1  0  0  0  0
  3  5  2  0  0  0  0
  4  7  2  0  0  0  0
  5  6  1  0  0  0  0
  5  7  1  0  0  0  0
  6  8  2  0  0  0  0
  6 10  1  0  0  0  0
  7 21  1  0  0  0  0
  8 16  1  0  0  0  0
  8 21  1  0  0  0  0
  9 17  1  6  0  0  0
  9 23  2  0  0  0  0
  9 24  1  0  0  0  0
 10 14  1  0  0  0  0
 11 12  1  0  0  0  0
 11 18  1  6  0  0  0
 12 20  1  0  0  0  0
 13 16  1  1  0  0  0
 13 19  1  1  0  0  0
 14 22  1  0  0  0  0
 15 18  1  0  0  0  0
 15 22  1  0  0  0  0
 16 22  1  0  0  0  0
 17 19  1  0  0  0  0
 17 20  1  0  0  0  0
 18 19  1  0  0  0  0
 20 25  1  6  0  0  0
  1 26  1  0  0  0  0
  2 27  1  0  0  0  0
  3 28  1  0  0  0  0
  4 29  1  0  0  0  0
 10 30  1  0  0  0  0
 10 31  1  0  0  0  0
 11 32  1  0  0  0  0
 11 33  1  0  0  0  0
 12 34  1  0  0  0  0
 12 35  1  0  0  0  0
 13 36  1  0  0  0  0
 13 37  1  0  0  0  0
 14 38  1  0  0  0  0
 14 39  1  0  0  0  0
 15 40  1  0  0  0  0
 15 41  1  0  0  0  0
 16 42  1  0  0  0  0
 17 43  1  0  0  0  0
 18 44  1  0  0  0  0
 19 45  1  0  0  0  0
 20 46  1  0  0  0  0
 21 47  1  0  0  0  0
 24 48  1  0  0  0  0
 25 49  1  0  0  0  0
M  END
> <id>
EN300-302966

> <smiles>
O[C@H]1CC[C@H]2CN3CCC4=C(NC=5C=CC=CC45)[C@@H]3C[C@@H]2[C@H]1C(=O)O

> <MDLNUMBER>
MFCD05673698

> <IUPAC Name>
(1S,15R,18S,19R,20S)-18-hydroxy-3,13-diazapentacyclo[11.8.0.0^{2,10}.0^{4,9}.0^{15,20}]henicosa-2(10),4(9),5,7-tetraene-19-carboxylic acid

> <CAS>
522-87-2

> <URL>
https://www.enaminestore.com/catalog/EN300-302966

> <ROCS_ShapeQuery>
_x0404_0B

> <ROCS_TanimotoCombo>
0.429 

> <ROCS_ShapeTanimoto>
0.355 

> <ROCS_ColorTanimoto>
0.073 

> <ROCS_RefTversky>
0.319 

> <ROCS_RefColorTversky>
0.083 

> <ROCS_RefTverskyCombo>
0.402 

> <ROCS_FitTversky>
1.471 

> <ROCS_FitColorTversky>
0.393 

> <ROCS_FitTverskyCombo>
1.865 

> <ROCS_ColorScore>
-5.994

> <ROCS_Overlap>
2131.660

> <ROCS_Rank>
465                 

$$$$
untitled-dbase-99189_1547
  -OEChem-08222312023D

 57 58  0     1  0  0  0  0  0999 V2000
   -9.1924    6.3105  -16.3015 C   0  0  0  0  0  0  0  0  0  0  0  0
   -8.6761    4.7895   -9.2317 C   0  0  0  0  0  0  0  0  0  0  0  0
   -9.8127    3.8250  -13.4811 C   0  0  0  0  0  0  0  0  0  0  0  0
  -10.0365    4.4268  -14.8707 C   0  0  0  0  0  0  0  0  0  0  0  0
   -9.1458    6.5129  -13.8305 C   0  0  0  0  0  0  0  0  0  0  0  0
   -8.7834    6.0487  -11.3721 C   0  0  0  0  0  0  0  0  0  0  0  0
   -8.2556    3.6990  -11.4661 C   0  0  0  0  0  0  0  0  0  0  0  0
   -8.3151    5.7363  -12.7972 C   0  0  1  0  0  0  0  0  0  0  0  0
   -8.4284    4.1930  -12.9127 C   0  0  2  0  0  0  0  0  0  0  0  0
   -7.3003    5.0020  -17.5621 C   0  0  0  0  0  0  0  0  0  0  0  0
   -9.0722    3.7201  -18.7977 C   0  0  0  0  0  0  0  0  0  0  0  0
   -8.6070    6.1125  -19.4044 C   0  0  0  0  0  0  0  0  0  0  0  0
   -9.9290    3.7733   -6.8723 C   0  0  0  0  0  0  0  0  0  0  0  0
   -8.2203    1.9353   -6.9789 C   0  0  0  0  0  0  0  0  0  0  0  0
   -7.4794    4.3156   -6.6729 C   0  0  0  0  0  0  0  0  0  0  0  0
   -7.3080    3.6036  -13.7880 C   0  0  0  0  0  0  0  0  0  0  0  0
   -8.6517    5.0901  -18.2698 C   0  0  0  0  0  0  0  0  0  0  0  0
   -8.5163    3.3953   -7.3152 C   0  0  0  0  0  0  0  0  0  0  0  0
   -9.4064    5.7412  -15.0415 N   0  0  0  0  0  0  0  0  0  0  0  0
   -8.5713    4.8332  -10.6130 N   0  0  0  0  0  0  0  0  0  0  0  0
   -8.6691    7.4069  -16.4901 O   0  0  0  0  0  0  0  0  0  0  0  0
   -8.9539    5.7592   -8.5294 O   0  0  0  0  0  0  0  0  0  0  0  0
   -7.4456    2.1967  -13.7962 O   0  0  0  0  0  0  0  0  0  0  0  0
   -9.6378    5.5072  -17.3187 O   0  0  0  0  0  0  0  0  0  0  0  0
   -8.4318    3.5360   -8.7377 O   0  0  0  0  0  0  0  0  0  0  0  0
  -10.6104    4.1869  -12.8244 H   0  0  0  0  0  0  0  0  0  0  0  0
   -9.9274    2.7390  -13.5345 H   0  0  0  0  0  0  0  0  0  0  0  0
   -9.6315    3.7648  -15.6583 H   0  0  0  0  0  0  0  0  0  0  0  0
  -11.1220    4.4958  -15.0672 H   0  0  0  0  0  0  0  0  0  0  0  0
  -10.0750    6.8629  -13.3646 H   0  0  0  0  0  0  0  0  0  0  0  0
   -8.5959    7.4116  -14.1432 H   0  0  0  0  0  0  0  0  0  0  0  0
   -8.2217    6.8838  -10.9249 H   0  0  0  0  0  0  0  0  0  0  0  0
   -9.8546    6.3001  -11.3172 H   0  0  0  0  0  0  0  0  0  0  0  0
   -8.8944    2.8386  -11.2128 H   0  0  0  0  0  0  0  0  0  0  0  0
   -7.2143    3.4140  -11.2460 H   0  0  0  0  0  0  0  0  0  0  0  0
   -7.2780    6.0519  -12.8898 H   0  0  0  0  0  0  0  0  0  0  0  0
   -6.9950    5.9834  -17.1817 H   0  0  0  0  0  0  0  0  0  0  0  0
   -7.3289    4.2978  -16.7242 H   0  0  0  0  0  0  0  0  0  0  0  0
   -6.5153    4.6818  -18.2567 H   0  0  0  0  0  0  0  0  0  0  0  0
  -10.0413    3.7786  -19.3062 H   0  0  0  0  0  0  0  0  0  0  0  0
   -9.1977    3.0066  -17.9752 H   0  0  0  0  0  0  0  0  0  0  0  0
   -8.3363    3.3143  -19.4994 H   0  0  0  0  0  0  0  0  0  0  0  0
   -9.5762    6.1759  -19.9122 H   0  0  0  0  0  0  0  0  0  0  0  0
   -8.3428    7.1099  -19.0383 H   0  0  0  0  0  0  0  0  0  0  0  0
   -7.8772    5.8169  -20.1668 H   0  0  0  0  0  0  0  0  0  0  0  0
  -10.1454    4.8205   -7.1119 H   0  0  0  0  0  0  0  0  0  0  0  0
  -10.6846    3.1433   -7.3529 H   0  0  0  0  0  0  0  0  0  0  0  0
  -10.0374    3.6760   -5.7860 H   0  0  0  0  0  0  0  0  0  0  0  0
   -7.2076    1.6598   -7.2950 H   0  0  0  0  0  0  0  0  0  0  0  0
   -8.9035    1.2654   -7.5134 H   0  0  0  0  0  0  0  0  0  0  0  0
   -8.3133    1.7411   -5.9055 H   0  0  0  0  0  0  0  0  0  0  0  0
   -6.4660    4.0446   -6.9904 H   0  0  0  0  0  0  0  0  0  0  0  0
   -7.6544    5.3644   -6.9336 H   0  0  0  0  0  0  0  0  0  0  0  0
   -7.4971    4.2205   -5.5811 H   0  0  0  0  0  0  0  0  0  0  0  0
   -6.3401    3.8733  -13.3719 H   0  0  0  0  0  0  0  0  0  0  0  0
   -7.3983    3.9853  -14.8023 H   0  0  0  0  0  0  0  0  0  0  0  0
   -6.7311    1.8409  -14.3529 H   0  0  0  0  0  0  0  0  0  0  0  0
  1 19  1  0  0  0  0
  1 21  2  0  0  0  0
  1 24  1  0  0  0  0
  2 20  1  0  0  0  0
  2 22  2  0  0  0  0
  2 25  1  0  0  0  0
  3  4  1  0  0  0  0
  3  9  1  0  0  0  0
  4 19  1  0  0  0  0
  5  8  1  0  0  0  0
  5 19  1  0  0  0  0
  6  8  1  0  0  0  0
  6 20  1  0  0  0  0
  7  9  1  0  0  0  0
  7 20  1  0  0  0  0
  8  9  1  0  0  0  0
  9 16  1  0  0  0  0
 10 17  1  0  0  0  0
 11 17  1  0  0  0  0
 12 17  1  0  0  0  0
 13 18  1  0  0  0  0
 14 18  1  0  0  0  0
 15 18  1  0  0  0  0
 16 23  1  0  0  0  0
 17 24  1  0  0  0  0
 18 25  1  0  0  0  0
  3 26  1  0  0  0  0
  3 27  1  0  0  0  0
  4 28  1  0  0  0  0
  4 29  1  0  0  0  0
  5 30  1  0  0  0  0
  5 31  1  0  0  0  0
  6 32  1  0  0  0  0
  6 33  1  0  0  0  0
  7 34  1  0  0  0  0
  7 35  1  0  0  0  0
  8 36  1  0  0  0  0
 10 37  1  0  0  0  0
 10 38  1  0  0  0  0
 10 39  1  0  0  0  0
 11 40  1  0  0  0  0
 11 41  1  0  0  0  0
 11 42  1  0  0  0  0
 12 43  1  0  0  0  0
 12 44  1  0  0  0  0
 12 45  1  0  0  0  0
 13 46  1  0  0  0  0
 13 47  1  0  0  0  0
 13 48  1  0  0  0  0
 14 49  1  0  0  0  0
 14 50  1  0  0  0  0
 14 51  1  0  0  0  0
 15 52  1  0  0  0  0
 15 53  1  0  0  0  0
 15 54  1  0  0  0  0
 16 55  1  0  0  0  0
 16 56  1  0  0  0  0
 23 57  1  0  0  0  0
M  END
> <id>
EN300-37100363

> <smiles>
CC(C)(C)OC(=O)N1CC2CN(CCC2(CO)C1)C(=O)OC(C)(C)C

> <IUPAC Name>
2,5-di-tert-butyl 7a-(hydroxymethyl)-octahydro-1H-pyrrolo[3,4-c]pyridine-2,5-dicarboxylate

> <CAS>
2757921-61-0

> <URL>
https://www.enaminestore.com/catalog/EN300-37100363

> <ROCS_ShapeQuery>
_x0404_0B

> <ROCS_TanimotoCombo>
0.429 

> <ROCS_ShapeTanimoto>
0.336 

> <ROCS_ColorTanimoto>
0.093 

> <ROCS_RefTversky>
0.304 

> <ROCS_RefColorTversky>
0.098 

> <ROCS_RefTverskyCombo>
0.402 

> <ROCS_FitTversky>
1.455 

> <ROCS_FitColorTversky>
0.621 

> <ROCS_FitTverskyCombo>
2.076 

> <ROCS_ColorScore>
-7.088

> <ROCS_Overlap>
2031.245

> <ROCS_Rank>
466                 

$$$$
untitled-dbase-66728_138
  -OEChem-08222312023D

 48 50  0     1  0  0  0  0  0999 V2000
   -8.9814    6.5386   -9.2298 C   0  0  0  0  0  0  0  0  0  0  0  0
   -8.9984    4.5385   -8.5227 C   0  0  0  0  0  0  0  0  0  0  0  0
   -8.6502    4.4647   -9.8498 C   0  0  0  0  0  0  0  0  0  0  0  0
   -8.7093    5.2860  -15.2052 C   0  0  0  0  0  0  0  0  0  0  0  0
   -9.1001    3.3490   -7.6465 C   0  0  0  0  0  0  0  0  0  0  0  0
   -8.3780    3.2160  -10.5904 C   0  0  0  0  0  0  0  0  0  0  0  0
   -8.0568    8.2293  -13.2276 C   0  0  0  0  0  0  0  0  0  0  0  0
   -8.3598    7.7650  -11.8035 C   0  0  0  0  0  0  0  0  0  0  0  0
   -8.2166    2.0730   -9.5588 C   0  0  0  0  0  0  0  0  0  0  0  0
   -8.9764    7.5573  -14.2422 C   0  0  0  0  0  0  0  0  0  0  0  0
   -9.2539    5.5918  -12.7532 C   0  0  0  0  0  0  0  0  0  0  0  0
   -8.3265    6.2295  -11.7045 C   0  0  2  0  0  0  0  0  0  0  0  0
   -8.9256    4.7763  -18.0135 C   0  0  0  0  0  0  0  0  0  0  0  0
   -6.7232    5.9678  -18.2111 C   0  0  0  0  0  0  0  0  0  0  0  0
   -6.8809    3.8437  -16.8801 C   0  0  0  0  0  0  0  0  0  0  0  0
   -7.6125    5.1148  -17.3091 C   0  0  0  0  0  0  0  0  0  0  0  0
   -9.1986    5.8346   -8.1358 N   0  0  0  0  0  0  0  0  0  0  0  0
   -8.6456    5.7481  -10.3012 N   0  0  0  0  0  0  0  0  0  0  0  0
   -9.2245    2.1271   -8.4751 N   0  0  0  0  0  0  0  0  0  0  0  0
   -8.9514    6.1024  -14.0961 N   0  0  0  0  0  0  0  0  0  0  0  0
   -9.1595    4.1497  -15.3406 O   0  0  0  0  0  0  0  0  0  0  0  0
   -7.9086    5.8873  -16.1398 O   0  0  0  0  0  0  0  0  0  0  0  0
   -9.0510    7.6149   -9.3094 H   0  0  0  0  0  0  0  0  0  0  0  0
   -8.2126    3.2615   -7.0091 H   0  0  0  0  0  0  0  0  0  0  0  0
   -9.9730    3.4377   -6.9879 H   0  0  0  0  0  0  0  0  0  0  0  0
   -9.1879    2.9779  -11.2863 H   0  0  0  0  0  0  0  0  0  0  0  0
   -7.4521    3.3280  -11.1655 H   0  0  0  0  0  0  0  0  0  0  0  0
   -8.1693    9.3173  -13.2915 H   0  0  0  0  0  0  0  0  0  0  0  0
   -7.0123    8.0000  -13.4733 H   0  0  0  0  0  0  0  0  0  0  0  0
   -7.6333    8.2038  -11.1088 H   0  0  0  0  0  0  0  0  0  0  0  0
   -9.3467    8.1390  -11.5005 H   0  0  0  0  0  0  0  0  0  0  0  0
   -8.2849    1.0975  -10.0610 H   0  0  0  0  0  0  0  0  0  0  0  0
   -7.2131    2.1233   -9.1175 H   0  0  0  0  0  0  0  0  0  0  0  0
  -10.0131    7.8804  -14.0902 H   0  0  0  0  0  0  0  0  0  0  0  0
   -8.6875    7.8506  -15.2563 H   0  0  0  0  0  0  0  0  0  0  0  0
   -9.1704    4.5013  -12.7112 H   0  0  0  0  0  0  0  0  0  0  0  0
  -10.3035    5.8368  -12.5452 H   0  0  0  0  0  0  0  0  0  0  0  0
   -7.2887    5.8721  -11.8670 H   0  0  0  0  0  0  0  0  0  0  0  0
   -9.5668    4.1640  -17.3693 H   0  0  0  0  0  0  0  0  0  0  0  0
   -9.4767    5.6794  -18.2952 H   0  0  0  0  0  0  0  0  0  0  0  0
   -8.7429    4.1858  -18.9186 H   0  0  0  0  0  0  0  0  0  0  0  0
   -5.7800    6.2131  -17.7097 H   0  0  0  0  0  0  0  0  0  0  0  0
   -7.2064    6.9235  -18.4444 H   0  0  0  0  0  0  0  0  0  0  0  0
   -6.4933    5.4569  -19.1517 H   0  0  0  0  0  0  0  0  0  0  0  0
   -5.9391    4.0863  -16.3749 H   0  0  0  0  0  0  0  0  0  0  0  0
   -7.4902    3.2369  -16.2026 H   0  0  0  0  0  0  0  0  0  0  0  0
   -6.6163    3.2336  -17.7513 H   0  0  0  0  0  0  0  0  0  0  0  0
   -9.1061    1.3099   -7.8788 H   0  0  0  0  0  0  0  0  0  0  0  0
  1 17  2  0  0  0  0
  1 18  1  0  0  0  0
  2  3  2  0  0  0  0
  2  5  1  0  0  0  0
  2 17  1  0  0  0  0
  3  6  1  0  0  0  0
  3 18  1  0  0  0  0
  4 20  1  0  0  0  0
  4 21  2  0  0  0  0
  4 22  1  0  0  0  0
  5 19  1  0  0  0  0
  6  9  1  0  0  0  0
  7  8  1  0  0  0  0
  7 10  1  0  0  0  0
  8 12  1  0  0  0  0
  9 19  1  0  0  0  0
 10 20  1  0  0  0  0
 11 12  1  0  0  0  0
 11 20  1  0  0  0  0
 12 18  1  0  0  0  0
 13 16  1  0  0  0  0
 14 16  1  0  0  0  0
 15 16  1  0  0  0  0
 16 22  1  0  0  0  0
  1 23  1  0  0  0  0
  5 24  1  0  0  0  0
  5 25  1  0  0  0  0
  6 26  1  0  0  0  0
  6 27  1  0  0  0  0
  7 28  1  0  0  0  0
  7 29  1  0  0  0  0
  8 30  1  0  0  0  0
  8 31  1  0  0  0  0
  9 32  1  0  0  0  0
  9 33  1  0  0  0  0
 10 34  1  0  0  0  0
 10 35  1  0  0  0  0
 11 36  1  0  0  0  0
 11 37  1  0  0  0  0
 12 38  1  0  0  0  0
 13 39  1  0  0  0  0
 13 40  1  0  0  0  0
 13 41  1  0  0  0  0
 14 42  1  0  0  0  0
 14 43  1  0  0  0  0
 14 44  1  0  0  0  0
 15 45  1  0  0  0  0
 15 46  1  0  0  0  0
 15 47  1  0  0  0  0
 19 48  1  0  0  0  0
M  END
> <id>
EN300-26981234

> <smiles>
CC(C)(C)OC(=O)N1CCCC(C1)N2C=NC=3CNCCC32

> <MDLNUMBER>
MFCD32710820

> <IUPAC Name>
tert-butyl 3-{1H,4H,5H,6H,7H-imidazo[4,5-c]pyridin-1-yl}piperidine-1-carboxylate

> <CAS>
2470437-44-4

> <Purity>
95

> <URL>
https://www.enaminestore.com/catalog/EN300-26981234

> <ROCS_ShapeQuery>
_x0404_0B

> <ROCS_TanimotoCombo>
0.429 

> <ROCS_ShapeTanimoto>
0.360 

> <ROCS_ColorTanimoto>
0.068 

> <ROCS_RefTversky>
0.316 

> <ROCS_RefColorTversky>
0.075 

> <ROCS_RefTverskyCombo>
0.391 

> <ROCS_FitTversky>
1.640 

> <ROCS_FitColorTversky>
0.438 

> <ROCS_FitTverskyCombo>
2.078 

> <ROCS_ColorScore>
-5.414

> <ROCS_Overlap>
2108.146

> <ROCS_Rank>
467                 

$$$$
untitled-dbase-90675_1106
  -OEChem-08222312023D

 53 55  0     0  0  0  0  0  0999 V2000
   -9.2935    4.7248  -15.0481 C   0  0  0  0  0  0  0  0  0  0  0  0
   -9.4780    5.4199  -16.2324 C   0  0  0  0  0  0  0  0  0  0  0  0
   -7.3132    5.0365  -16.8991 C   0  0  0  0  0  0  0  0  0  0  0  0
   -8.0417    4.1693  -14.8078 C   0  0  0  0  0  0  0  0  0  0  0  0
   -7.0271    4.3236  -15.7460 C   0  0  0  0  0  0  0  0  0  0  0  0
   -9.4836    3.1465   -8.0913 C   0  0  0  0  0  0  0  0  0  0  0  0
   -6.7077    4.0170  -12.6261 C   0  0  0  0  0  0  0  0  0  0  0  0
   -9.0782    3.1855  -12.6153 C   0  0  0  0  0  0  0  0  0  0  0  0
   -7.1546    5.2970  -11.9225 C   0  0  0  0  0  0  0  0  0  0  0  0
   -9.5165    4.4400  -11.8531 C   0  0  0  0  0  0  0  0  0  0  0  0
   -9.6375    5.6124   -8.5122 C   0  0  0  0  0  0  0  0  0  0  0  0
   -8.0228    4.2308   -9.7876 C   0  0  0  0  0  0  0  0  0  0  0  0
   -8.8840    6.6919   -9.2697 C   0  0  0  0  0  0  0  0  0  0  0  0
   -7.8264    3.3988  -13.5019 C   0  0  0  0  0  0  0  0  0  0  0  0
   -8.3881    5.0877  -11.0237 C   0  0  0  0  0  0  0  0  0  0  0  0
   -9.2089    1.3192   -5.9080 C   0  0  0  0  0  0  0  0  0  0  0  0
  -10.7893    2.8364   -4.6794 C   0  0  0  0  0  0  0  0  0  0  0  0
  -11.5493    1.6649   -6.7670 C   0  0  0  0  0  0  0  0  0  0  0  0
  -10.3647    2.3089   -6.0481 C   0  0  0  0  0  0  0  0  0  0  0  0
   -8.5167    5.5906  -17.1675 N   0  0  0  0  0  0  0  0  0  0  0  0
   -9.0697    4.2922   -8.7718 N   0  0  0  0  0  0  0  0  0  0  0  0
   -9.4707    2.0126   -8.5657 O   0  0  0  0  0  0  0  0  0  0  0  0
   -8.8557    6.4050  -10.6638 O   0  0  0  0  0  0  0  0  0  0  0  0
   -7.3894    2.0928  -13.9172 O   0  0  0  0  0  0  0  0  0  0  0  0
   -9.9155    3.4275   -6.8213 O   0  0  0  0  0  0  0  0  0  0  0  0
   -5.2983    3.6023  -15.5001 Br  0  0  0  0  0  0  0  0  0  0  0  0
  -10.1064    4.6229  -14.3372 H   0  0  0  0  0  0  0  0  0  0  0  0
  -10.4359    5.8723  -16.4673 H   0  0  0  0  0  0  0  0  0  0  0  0
   -6.5667    5.1940  -17.6720 H   0  0  0  0  0  0  0  0  0  0  0  0
   -5.8301    4.2356  -13.2449 H   0  0  0  0  0  0  0  0  0  0  0  0
   -6.3924    3.2942  -11.8653 H   0  0  0  0  0  0  0  0  0  0  0  0
   -8.8837    2.3869  -11.8845 H   0  0  0  0  0  0  0  0  0  0  0  0
   -9.9167    2.8385  -13.2379 H   0  0  0  0  0  0  0  0  0  0  0  0
   -6.3214    5.6911  -11.3195 H   0  0  0  0  0  0  0  0  0  0  0  0
   -7.3464    6.0594  -12.6910 H   0  0  0  0  0  0  0  0  0  0  0  0
   -9.8987    5.1650  -12.5916 H   0  0  0  0  0  0  0  0  0  0  0  0
  -10.3679    4.1910  -11.1983 H   0  0  0  0  0  0  0  0  0  0  0  0
   -9.6581    5.8451   -7.4393 H   0  0  0  0  0  0  0  0  0  0  0  0
  -10.6824    5.5711   -8.8565 H   0  0  0  0  0  0  0  0  0  0  0  0
   -7.9415    3.1731  -10.0712 H   0  0  0  0  0  0  0  0  0  0  0  0
   -7.0543    4.5332   -9.3730 H   0  0  0  0  0  0  0  0  0  0  0  0
   -9.3948    7.6499   -9.1440 H   0  0  0  0  0  0  0  0  0  0  0  0
   -7.8686    6.8181   -8.8873 H   0  0  0  0  0  0  0  0  0  0  0  0
   -8.9011    0.9382   -6.8884 H   0  0  0  0  0  0  0  0  0  0  0  0
   -8.3404    1.7791   -5.4254 H   0  0  0  0  0  0  0  0  0  0  0  0
   -9.5109    0.4463   -5.3181 H   0  0  0  0  0  0  0  0  0  0  0  0
  -11.6184    3.5469   -4.7751 H   0  0  0  0  0  0  0  0  0  0  0  0
   -9.9689    3.3824   -4.1998 H   0  0  0  0  0  0  0  0  0  0  0  0
  -11.1025    2.0259   -4.0134 H   0  0  0  0  0  0  0  0  0  0  0  0
  -12.3784    2.3745   -6.8676 H   0  0  0  0  0  0  0  0  0  0  0  0
  -11.2721    1.3133   -7.7661 H   0  0  0  0  0  0  0  0  0  0  0  0
  -11.9375    0.8150   -6.1941 H   0  0  0  0  0  0  0  0  0  0  0  0
   -8.1014    1.7243  -14.4626 H   0  0  0  0  0  0  0  0  0  0  0  0
  1  2  1  0  0  0  0
  1  4  2  0  0  0  0
  2 20  2  0  0  0  0
  3  5  2  0  0  0  0
  3 20  1  0  0  0  0
  4  5  1  0  0  0  0
  4 14  1  0  0  0  0
  5 26  1  0  0  0  0
  6 21  1  0  0  0  0
  6 22  2  0  0  0  0
  6 25  1  0  0  0  0
  7  9  1  0  0  0  0
  7 14  1  0  0  0  0
  8 10  1  0  0  0  0
  8 14  1  0  0  0  0
  9 15  1  0  0  0  0
 10 15  1  0  0  0  0
 11 13  1  0  0  0  0
 11 21  1  0  0  0  0
 12 15  1  0  0  0  0
 12 21  1  0  0  0  0
 13 23  1  0  0  0  0
 14 24  1  0  0  0  0
 15 23  1  0  0  0  0
 16 19  1  0  0  0  0
 17 19  1  0  0  0  0
 18 19  1  0  0  0  0
 19 25  1  0  0  0  0
  1 27  1  0  0  0  0
  2 28  1  0  0  0  0
  3 29  1  0  0  0  0
  7 30  1  0  0  0  0
  7 31  1  0  0  0  0
  8 32  1  0  0  0  0
  8 33  1  0  0  0  0
  9 34  1  0  0  0  0
  9 35  1  0  0  0  0
 10 36  1  0  0  0  0
 10 37  1  0  0  0  0
 11 38  1  0  0  0  0
 11 39  1  0  0  0  0
 12 40  1  0  0  0  0
 12 41  1  0  0  0  0
 13 42  1  0  0  0  0
 13 43  1  0  0  0  0
 16 44  1  0  0  0  0
 16 45  1  0  0  0  0
 16 46  1  0  0  0  0
 17 47  1  0  0  0  0
 17 48  1  0  0  0  0
 17 49  1  0  0  0  0
 18 50  1  0  0  0  0
 18 51  1  0  0  0  0
 18 52  1  0  0  0  0
 24 53  1  0  0  0  0
M  END
> <id>
EN300-7429093

> <smiles>
CC(C)(C)OC(=O)N1CCOC2(CCC(O)(CC2)C=3C=CN=CC3Br)C1

> <IUPAC Name>
tert-butyl 9-(3-bromopyridin-4-yl)-9-hydroxy-1-oxa-4-azaspiro[5.5]undecane-4-carboxylate

> <CAS>
2309456-97-9

> <URL>
https://www.enaminestore.com/catalog/EN300-7429093

> <ROCS_ShapeQuery>
_x0404_0B

> <ROCS_TanimotoCombo>
0.429 

> <ROCS_ShapeTanimoto>
0.316 

> <ROCS_ColorTanimoto>
0.113 

> <ROCS_RefTversky>
0.292 

> <ROCS_RefColorTversky>
0.120 

> <ROCS_RefTverskyCombo>
0.412 

> <ROCS_FitTversky>
1.349 

> <ROCS_FitColorTversky>
0.653 

> <ROCS_FitTverskyCombo>
2.002 

> <ROCS_ColorScore>
-8.672

> <ROCS_Overlap>
1951.131

> <ROCS_Rank>
468                 

$$$$
untitled-dbase-170131_954
  -OEChem-08222312023D

 54 56  0     1  0  0  0  0  0999 V2000
   -8.7829    5.2487  -16.3057 B   0  0  0  0  0  0  0  0  0  0  0  0
   -9.2499    5.2655   -9.1437 C   0  0  0  0  0  0  0  0  0  0  0  0
   -8.3944    5.1349  -13.6445 C   0  0  0  0  0  0  0  0  0  0  0  0
   -8.0036    6.0520  -11.2384 C   0  0  0  0  0  0  0  0  0  0  0  0
  -10.0016    5.3336  -11.6081 C   0  0  0  0  0  0  0  0  0  0  0  0
   -9.3314    7.1681  -14.5048 C   0  0  0  0  0  0  0  0  0  0  0  0
   -9.2077    5.6769  -14.8229 C   0  0  1  0  0  0  0  0  0  0  0  0
   -8.9063    5.9831  -12.4842 C   0  0  0  0  0  0  0  0  0  0  0  0
   -8.9653    4.5060  -18.4626 C   0  0  0  0  0  0  0  0  0  0  0  0
   -7.4698    4.8320  -18.1329 C   0  0  0  0  0  0  0  0  0  0  0  0
   -9.4912    5.1475  -19.7545 C   0  0  0  0  0  0  0  0  0  0  0  0
   -9.3067    2.9997  -18.5091 C   0  0  0  0  0  0  0  0  0  0  0  0
   -6.9394    6.1451  -18.7516 C   0  0  0  0  0  0  0  0  0  0  0  0
   -6.4781    3.7132  -18.4822 C   0  0  0  0  0  0  0  0  0  0  0  0
   -9.0506    3.5656   -6.8586 C   0  0  0  0  0  0  0  0  0  0  0  0
  -10.6496    2.0558   -8.0722 C   0  0  0  0  0  0  0  0  0  0  0  0
   -8.3909    2.5376   -9.0592 C   0  0  0  0  0  0  0  0  0  0  0  0
   -9.5436    3.0974   -8.2270 C   0  0  0  0  0  0  0  0  0  0  0  0
   -9.1137    5.5170  -10.4812 N   0  0  0  0  0  0  0  0  0  0  0  0
   -8.6790    5.8990   -8.2603 O   0  0  0  0  0  0  0  0  0  0  0  0
   -9.7050    5.0787  -17.3362 O   0  0  0  0  0  0  0  0  0  0  0  0
   -7.4624    5.0092  -16.6794 O   0  0  0  0  0  0  0  0  0  0  0  0
   -9.2815    7.2567  -13.0721 O   0  0  0  0  0  0  0  0  0  0  0  0
  -10.1020    4.2199   -8.9185 O   0  0  0  0  0  0  0  0  0  0  0  0
   -8.5333    4.0589  -13.4875 H   0  0  0  0  0  0  0  0  0  0  0  0
   -7.3225    5.3147  -13.8031 H   0  0  0  0  0  0  0  0  0  0  0  0
   -7.1250    5.3999  -11.2434 H   0  0  0  0  0  0  0  0  0  0  0  0
   -7.7181    7.0593  -10.9181 H   0  0  0  0  0  0  0  0  0  0  0  0
  -10.9301    5.9060  -11.5134 H   0  0  0  0  0  0  0  0  0  0  0  0
  -10.2318    4.2850  -11.8193 H   0  0  0  0  0  0  0  0  0  0  0  0
   -8.4979    7.7560  -14.9052 H   0  0  0  0  0  0  0  0  0  0  0  0
  -10.2733    7.5982  -14.8610 H   0  0  0  0  0  0  0  0  0  0  0  0
  -10.2182    5.2603  -14.7024 H   0  0  0  0  0  0  0  0  0  0  0  0
  -10.5269    4.8630  -19.8914 H   0  0  0  0  0  0  0  0  0  0  0  0
   -8.8969    4.7956  -20.5883 H   0  0  0  0  0  0  0  0  0  0  0  0
   -9.4106    6.2240  -19.6699 H   0  0  0  0  0  0  0  0  0  0  0  0
  -10.3599    2.8752  -18.7434 H   0  0  0  0  0  0  0  0  0  0  0  0
   -9.0945    2.5514  -17.5429 H   0  0  0  0  0  0  0  0  0  0  0  0
   -8.7052    2.5165  -19.2735 H   0  0  0  0  0  0  0  0  0  0  0  0
   -5.9001    6.2837  -18.4684 H   0  0  0  0  0  0  0  0  0  0  0  0
   -7.5296    6.9804  -18.3863 H   0  0  0  0  0  0  0  0  0  0  0  0
   -7.0168    6.0914  -19.8336 H   0  0  0  0  0  0  0  0  0  0  0  0
   -5.4787    4.0349  -18.2177 H   0  0  0  0  0  0  0  0  0  0  0  0
   -6.5342    3.5138  -19.5449 H   0  0  0  0  0  0  0  0  0  0  0  0
   -6.7415    2.8238  -17.9236 H   0  0  0  0  0  0  0  0  0  0  0  0
   -8.2566    4.3133   -6.9654 H   0  0  0  0  0  0  0  0  0  0  0  0
   -9.8610    4.0012   -6.2652 H   0  0  0  0  0  0  0  0  0  0  0  0
   -8.6168    2.7327   -6.2933 H   0  0  0  0  0  0  0  0  0  0  0  0
  -11.0064    1.7171   -9.0516 H   0  0  0  0  0  0  0  0  0  0  0  0
  -11.5184    2.4824   -7.5579 H   0  0  0  0  0  0  0  0  0  0  0  0
  -10.3064    1.1830   -7.5074 H   0  0  0  0  0  0  0  0  0  0  0  0
   -8.7443    2.2017  -10.0408 H   0  0  0  0  0  0  0  0  0  0  0  0
   -7.6042    3.2835   -9.2118 H   0  0  0  0  0  0  0  0  0  0  0  0
   -7.9493    1.6603   -8.5728 H   0  0  0  0  0  0  0  0  0  0  0  0
  1  7  1  0  0  0  0
  1 21  1  0  0  0  0
  1 22  1  0  0  0  0
  2 19  1  0  0  0  0
  2 20  2  0  0  0  0
  2 24  1  0  0  0  0
  3  7  1  0  0  0  0
  3  8  1  0  0  0  0
  4  8  1  0  0  0  0
  4 19  1  0  0  0  0
  5  8  1  0  0  0  0
  5 19  1  0  0  0  0
  6  7  1  0  0  0  0
  6 23  1  0  0  0  0
  8 23  1  0  0  0  0
  9 10  1  0  0  0  0
  9 11  1  0  0  0  0
  9 12  1  0  0  0  0
  9 21  1  0  0  0  0
 10 13  1  0  0  0  0
 10 14  1  0  0  0  0
 10 22  1  0  0  0  0
 15 18  1  0  0  0  0
 16 18  1  0  0  0  0
 17 18  1  0  0  0  0
 18 24  1  0  0  0  0
  3 25  1  0  0  0  0
  3 26  1  0  0  0  0
  4 27  1  0  0  0  0
  4 28  1  0  0  0  0
  5 29  1  0  0  0  0
  5 30  1  0  0  0  0
  6 31  1  0  0  0  0
  6 32  1  0  0  0  0
  7 33  1  0  0  0  0
 11 34  1  0  0  0  0
 11 35  1  0  0  0  0
 11 36  1  0  0  0  0
 12 37  1  0  0  0  0
 12 38  1  0  0  0  0
 12 39  1  0  0  0  0
 13 40  1  0  0  0  0
 13 41  1  0  0  0  0
 13 42  1  0  0  0  0
 14 43  1  0  0  0  0
 14 44  1  0  0  0  0
 14 45  1  0  0  0  0
 15 46  1  0  0  0  0
 15 47  1  0  0  0  0
 15 48  1  0  0  0  0
 16 49  1  0  0  0  0
 16 50  1  0  0  0  0
 16 51  1  0  0  0  0
 17 52  1  0  0  0  0
 17 53  1  0  0  0  0
 17 54  1  0  0  0  0
M  END
> <id>
EN300-27134741

> <smiles>
CC(C)(C)OC(=O)N1CC2(C1)CC(CO2)B3OC(C)(C)C(C)(C)O3

> <IUPAC Name>
tert-butyl 7-(4,4,5,5-tetramethyl-1,3,2-dioxaborolan-2-yl)-5-oxa-2-azaspiro[3.4]octane-2-carboxylate

> <URL>
https://www.enaminestore.com/catalog/EN300-27134741

> <ROCS_ShapeQuery>
_x0404_0B

> <ROCS_TanimotoCombo>
0.429 

> <ROCS_ShapeTanimoto>
0.379 

> <ROCS_ColorTanimoto>
0.049 

> <ROCS_RefTversky>
0.331 

> <ROCS_RefColorTversky>
0.054 

> <ROCS_RefTverskyCombo>
0.385 

> <ROCS_FitTversky>
1.626 

> <ROCS_FitColorTversky>
0.345 

> <ROCS_FitTverskyCombo>
1.971 

> <ROCS_ColorScore>
-3.928

> <ROCS_Overlap>
2209.985

> <ROCS_Rank>
469                 

$$$$
untitled-dbase-77675_417
  -OEChem-08222312023D

 47 49  0     1  0  0  0  0  0999 V2000
   -8.6890    6.1122  -12.1647 C   0  0  0  0  0  0  0  0  0  0  0  0
   -8.7811    6.5326  -10.8376 C   0  0  0  0  0  0  0  0  0  0  0  0
   -8.8038    3.8055  -11.4494 C   0  0  0  0  0  0  0  0  0  0  0  0
   -8.7056    4.7510  -12.4705 C   0  0  0  0  0  0  0  0  0  0  0  0
   -8.8927    5.5881   -9.8168 C   0  0  0  0  0  0  0  0  0  0  0  0
   -8.8821    4.2245  -10.1209 C   0  0  0  0  0  0  0  0  0  0  0  0
   -7.5270    5.9400  -15.4725 C   0  0  0  0  0  0  0  0  0  0  0  0
   -6.2802    2.6764  -14.6136 C   0  0  0  0  0  0  0  0  0  0  0  0
   -6.1500    4.1664  -14.3134 C   0  0  0  0  0  0  0  0  0  0  0  0
   -8.6611    2.7742  -14.2037 C   0  0  0  0  0  0  0  0  0  0  0  0
   -9.4505    5.0524   -7.6286 C   0  0  0  0  0  0  0  0  0  0  0  0
   -8.6840    3.7639   -7.8550 C   0  0  0  0  0  0  0  0  0  0  0  0
   -8.6115    4.2946  -13.9265 C   0  0  2  0  0  0  0  0  0  0  0  0
   -7.9745    7.1051  -18.0481 C   0  0  0  0  0  0  0  0  0  0  0  0
   -5.9340    5.8324  -18.7731 C   0  0  0  0  0  0  0  0  0  0  0  0
   -7.9615    4.5896  -17.9653 C   0  0  0  0  0  0  0  0  0  0  0  0
   -7.1229    5.8580  -17.8150 C   0  0  0  0  0  0  0  0  0  0  0  0
   -7.4064    2.0755  -13.8974 N   0  0  0  0  0  0  0  0  0  0  0  0
   -7.4152    4.8527  -14.5967 N   0  0  0  0  0  0  0  0  0  0  0  0
   -8.3595    6.8381  -15.3591 O   0  0  0  0  0  0  0  0  0  0  0  0
   -9.0002    6.0626   -8.5356 O   0  0  0  0  0  0  0  0  0  0  0  0
   -8.9556    3.2489   -9.1613 O   0  0  0  0  0  0  0  0  0  0  0  0
   -6.6016    5.9047  -16.4817 O   0  0  0  0  0  0  0  0  0  0  0  0
   -8.6086    6.8536  -12.9554 H   0  0  0  0  0  0  0  0  0  0  0  0
   -8.7754    7.5949  -10.6094 H   0  0  0  0  0  0  0  0  0  0  0  0
   -8.8090    2.7444  -11.6868 H   0  0  0  0  0  0  0  0  0  0  0  0
   -6.3859    2.5134  -15.6949 H   0  0  0  0  0  0  0  0  0  0  0  0
   -5.3573    2.1687  -14.3071 H   0  0  0  0  0  0  0  0  0  0  0  0
   -5.9304    4.3245  -13.2605 H   0  0  0  0  0  0  0  0  0  0  0  0
   -5.3452    4.5948  -14.9008 H   0  0  0  0  0  0  0  0  0  0  0  0
   -9.4695    2.3087  -13.6301 H   0  0  0  0  0  0  0  0  0  0  0  0
   -8.8971    2.6175  -15.2629 H   0  0  0  0  0  0  0  0  0  0  0  0
  -10.5294    4.9112   -7.7689 H   0  0  0  0  0  0  0  0  0  0  0  0
   -9.2845    5.4202   -6.6113 H   0  0  0  0  0  0  0  0  0  0  0  0
   -7.6018    3.9143   -7.7555 H   0  0  0  0  0  0  0  0  0  0  0  0
   -8.9912    3.0059   -7.1278 H   0  0  0  0  0  0  0  0  0  0  0  0
   -9.5037    4.7482  -14.4478 H   0  0  0  0  0  0  0  0  0  0  0  0
   -8.8290    7.1272  -17.3622 H   0  0  0  0  0  0  0  0  0  0  0  0
   -7.3931    8.0224  -17.9089 H   0  0  0  0  0  0  0  0  0  0  0  0
   -8.3915    7.1100  -19.0616 H   0  0  0  0  0  0  0  0  0  0  0  0
   -5.3201    4.9393  -18.6094 H   0  0  0  0  0  0  0  0  0  0  0  0
   -5.2774    6.6935  -18.6036 H   0  0  0  0  0  0  0  0  0  0  0  0
   -6.2576    5.8438  -19.8189 H   0  0  0  0  0  0  0  0  0  0  0  0
   -7.3509    3.6950  -17.7982 H   0  0  0  0  0  0  0  0  0  0  0  0
   -8.7985    4.5735  -17.2597 H   0  0  0  0  0  0  0  0  0  0  0  0
   -8.3617    4.5053  -18.9822 H   0  0  0  0  0  0  0  0  0  0  0  0
   -7.4948    1.0957  -14.1655 H   0  0  0  0  0  0  0  0  0  0  0  0
  1  2  1  0  0  0  0
  1  4  2  0  0  0  0
  2  5  2  0  0  0  0
  3  4  1  0  0  0  0
  3  6  2  0  0  0  0
  4 13  1  0  0  0  0
  5  6  1  0  0  0  0
  5 21  1  0  0  0  0
  6 22  1  0  0  0  0
  7 19  1  0  0  0  0
  7 20  2  0  0  0  0
  7 23  1  0  0  0  0
  8  9  1  0  0  0  0
  8 18  1  0  0  0  0
  9 19  1  0  0  0  0
 10 13  1  0  0  0  0
 10 18  1  0  0  0  0
 11 12  1  0  0  0  0
 11 21  1  0  0  0  0
 12 22  1  0  0  0  0
 13 19  1  0  0  0  0
 14 17  1  0  0  0  0
 15 17  1  0  0  0  0
 16 17  1  0  0  0  0
 17 23  1  0  0  0  0
  1 24  1  0  0  0  0
  2 25  1  0  0  0  0
  3 26  1  0  0  0  0
  8 27  1  0  0  0  0
  8 28  1  0  0  0  0
  9 29  1  0  0  0  0
  9 30  1  0  0  0  0
 10 31  1  0  0  0  0
 10 32  1  0  0  0  0
 11 33  1  0  0  0  0
 11 34  1  0  0  0  0
 12 35  1  0  0  0  0
 12 36  1  0  0  0  0
 13 37  1  0  0  0  0
 14 38  1  0  0  0  0
 14 39  1  0  0  0  0
 14 40  1  0  0  0  0
 15 41  1  0  0  0  0
 15 42  1  0  0  0  0
 15 43  1  0  0  0  0
 16 44  1  0  0  0  0
 16 45  1  0  0  0  0
 16 46  1  0  0  0  0
 18 47  1  0  0  0  0
M  END
> <id>
EN300-1873797

> <smiles>
CC(C)(C)OC(=O)N1CCNCC1C=2C=CC=3OCCOC3C2

> <IUPAC Name>
tert-butyl 2-(2,3-dihydro-1,4-benzodioxin-6-yl)piperazine-1-carboxylate

> <CAS>
2228513-03-7

> <URL>
https://www.enaminestore.com/catalog/EN300-1873797

> <ROCS_ShapeQuery>
_x0404_0B

> <ROCS_TanimotoCombo>
0.429 

> <ROCS_ShapeTanimoto>
0.335 

> <ROCS_ColorTanimoto>
0.094 

> <ROCS_RefTversky>
0.301 

> <ROCS_RefColorTversky>
0.101 

> <ROCS_RefTverskyCombo>
0.401 

> <ROCS_FitTversky>
1.503 

> <ROCS_FitColorTversky>
0.589 

> <ROCS_FitTverskyCombo>
2.092 

> <ROCS_ColorScore>
-7.266

> <ROCS_Overlap>
2009.086

> <ROCS_Rank>
470                 

$$$$
untitled-dbase-160751_1563
  -OEChem-08222312023D

 53 54  0     0  0  0  0  0  0999 V2000
   -8.6359    5.7694  -15.7253 B   0  0  0  0  0  0  0  0  0  0  0  0
   -8.7440    6.2649  -13.2227 C   0  0  0  0  0  0  0  0  0  0  0  0
   -8.8865    6.6534  -14.4981 C   0  0  0  0  0  0  0  0  0  0  0  0
   -8.7695    5.0076   -9.0920 C   0  0  0  0  0  0  0  0  0  0  0  0
   -9.0129    7.2035  -12.0737 C   0  0  0  0  0  0  0  0  0  0  0  0
   -8.3104    4.8684  -12.8575 C   0  0  0  0  0  0  0  0  0  0  0  0
   -8.3013    6.7431  -10.8022 C   0  0  0  0  0  0  0  0  0  0  0  0
   -8.9312    4.4257  -11.5332 C   0  0  0  0  0  0  0  0  0  0  0  0
   -8.9521    4.1451  -17.3066 C   0  0  0  0  0  0  0  0  0  0  0  0
   -7.6167    4.9132  -17.5871 C   0  0  0  0  0  0  0  0  0  0  0  0
   -8.8193    2.6156  -17.2837 C   0  0  0  0  0  0  0  0  0  0  0  0
  -10.1197    4.5049  -18.2529 C   0  0  0  0  0  0  0  0  0  0  0  0
   -7.4598    5.4214  -19.0273 C   0  0  0  0  0  0  0  0  0  0  0  0
   -6.3318    4.1391  -17.2156 C   0  0  0  0  0  0  0  0  0  0  0  0
  -10.8619    3.4617   -8.7597 C   0  0  0  0  0  0  0  0  0  0  0  0
   -9.3424    1.4633   -8.8415 C   0  0  0  0  0  0  0  0  0  0  0  0
   -9.3838    2.9200   -6.7960 C   0  0  0  0  0  0  0  0  0  0  0  0
   -9.5168    2.8872   -8.3178 C   0  0  0  0  0  0  0  0  0  0  0  0
   -8.6675    5.3707  -10.4387 N   0  0  0  0  0  0  0  0  0  0  0  0
   -9.0942    5.7763   -8.1891 O   0  0  0  0  0  0  0  0  0  0  0  0
   -9.3355    4.5890  -15.9645 O   0  0  0  0  0  0  0  0  0  0  0  0
   -7.6886    6.0757  -16.6993 O   0  0  0  0  0  0  0  0  0  0  0  0
   -8.4718    3.6862   -8.8842 O   0  0  0  0  0  0  0  0  0  0  0  0
   -9.2255    7.7506  -14.5496 H   0  0  0  0  0  0  0  0  0  0  0  0
   -8.6655    8.2114  -12.3477 H   0  0  0  0  0  0  0  0  0  0  0  0
  -10.0912    7.2890  -11.8734 H   0  0  0  0  0  0  0  0  0  0  0  0
   -8.5821    4.1476  -13.6430 H   0  0  0  0  0  0  0  0  0  0  0  0
   -7.2128    4.8443  -12.7782 H   0  0  0  0  0  0  0  0  0  0  0  0
   -7.2164    6.8466  -10.9336 H   0  0  0  0  0  0  0  0  0  0  0  0
   -8.5798    7.3853   -9.9525 H   0  0  0  0  0  0  0  0  0  0  0  0
  -10.0272    4.3421  -11.6275 H   0  0  0  0  0  0  0  0  0  0  0  0
   -8.5626    3.4220  -11.2688 H   0  0  0  0  0  0  0  0  0  0  0  0
   -9.7910    2.1819  -17.0835 H   0  0  0  0  0  0  0  0  0  0  0  0
   -8.1210    2.3355  -16.5050 H   0  0  0  0  0  0  0  0  0  0  0  0
   -8.4550    2.2805  -18.2467 H   0  0  0  0  0  0  0  0  0  0  0  0
  -10.9967    3.9247  -17.9812 H   0  0  0  0  0  0  0  0  0  0  0  0
   -9.8375    4.2780  -19.2769 H   0  0  0  0  0  0  0  0  0  0  0  0
  -10.3433    5.5640  -18.1641 H   0  0  0  0  0  0  0  0  0  0  0  0
   -6.5107    5.9347  -19.1170 H   0  0  0  0  0  0  0  0  0  0  0  0
   -8.2718    6.1022  -19.2496 H   0  0  0  0  0  0  0  0  0  0  0  0
   -7.4893    4.5758  -19.7031 H   0  0  0  0  0  0  0  0  0  0  0  0
   -5.4632    4.7495  -17.4450 H   0  0  0  0  0  0  0  0  0  0  0  0
   -6.2880    3.2165  -17.7871 H   0  0  0  0  0  0  0  0  0  0  0  0
   -6.3432    3.9084  -16.1543 H   0  0  0  0  0  0  0  0  0  0  0  0
  -10.9909    4.4838   -8.3858 H   0  0  0  0  0  0  0  0  0  0  0  0
  -10.9556    3.4761   -9.8505 H   0  0  0  0  0  0  0  0  0  0  0  0
  -11.6916    2.8752   -8.3488 H   0  0  0  0  0  0  0  0  0  0  0  0
   -8.3786    1.0471   -8.5269 H   0  0  0  0  0  0  0  0  0  0  0  0
   -9.3423    1.4478   -9.9375 H   0  0  0  0  0  0  0  0  0  0  0  0
  -10.1386    0.8016   -8.4855 H   0  0  0  0  0  0  0  0  0  0  0  0
   -8.4190    2.5080   -6.4787 H   0  0  0  0  0  0  0  0  0  0  0  0
   -9.4694    3.9393   -6.4055 H   0  0  0  0  0  0  0  0  0  0  0  0
  -10.1549    2.3004   -6.3240 H   0  0  0  0  0  0  0  0  0  0  0  0
  1  3  1  0  0  0  0
  1 21  1  0  0  0  0
  1 22  1  0  0  0  0
  2  3  2  0  0  0  0
  2  5  1  0  0  0  0
  2  6  1  0  0  0  0
  4 19  1  0  0  0  0
  4 20  2  0  0  0  0
  4 23  1  0  0  0  0
  5  7  1  0  0  0  0
  6  8  1  0  0  0  0
  7 19  1  0  0  0  0
  8 19  1  0  0  0  0
  9 10  1  0  0  0  0
  9 11  1  0  0  0  0
  9 12  1  0  0  0  0
  9 21  1  0  0  0  0
 10 13  1  0  0  0  0
 10 14  1  0  0  0  0
 10 22  1  0  0  0  0
 15 18  1  0  0  0  0
 16 18  1  0  0  0  0
 17 18  1  0  0  0  0
 18 23  1  0  0  0  0
  3 24  1  0  0  0  0
  5 25  1  0  0  0  0
  5 26  1  0  0  0  0
  6 27  1  0  0  0  0
  6 28  1  0  0  0  0
  7 29  1  0  0  0  0
  7 30  1  0  0  0  0
  8 31  1  0  0  0  0
  8 32  1  0  0  0  0
 11 33  1  0  0  0  0
 11 34  1  0  0  0  0
 11 35  1  0  0  0  0
 12 36  1  0  0  0  0
 12 37  1  0  0  0  0
 12 38  1  0  0  0  0
 13 39  1  0  0  0  0
 13 40  1  0  0  0  0
 13 41  1  0  0  0  0
 14 42  1  0  0  0  0
 14 43  1  0  0  0  0
 14 44  1  0  0  0  0
 15 45  1  0  0  0  0
 15 46  1  0  0  0  0
 15 47  1  0  0  0  0
 16 48  1  0  0  0  0
 16 49  1  0  0  0  0
 16 50  1  0  0  0  0
 17 51  1  0  0  0  0
 17 52  1  0  0  0  0
 17 53  1  0  0  0  0
M  END
> <id>
EN300-258163

> <smiles>
CC(C)(C)OC(=O)N1CCC(=CB2OC(C)(C)C(C)(C)O2)CC1

> <MDLNUMBER>
MFCD14706665

> <IUPAC Name>
tert-butyl 4-[(tetramethyl-1,3,2-dioxaborolan-2-yl)methylidene]piperidine-1-carboxylate

> <CAS>
1425970-61-1

> <Purity>
95

> <URL>
https://www.enaminestore.com/catalog/EN300-258163

> <ROCS_ShapeQuery>
_x0404_0B

> <ROCS_TanimotoCombo>
0.428 

> <ROCS_ShapeTanimoto>
0.383 

> <ROCS_ColorTanimoto>
0.045 

> <ROCS_RefTversky>
0.331 

> <ROCS_RefColorTversky>
0.049 

> <ROCS_RefTverskyCombo>
0.380 

> <ROCS_FitTversky>
1.702 

> <ROCS_FitColorTversky>
0.372 

> <ROCS_FitTverskyCombo>
2.073 

> <ROCS_ColorScore>
-3.524

> <ROCS_Overlap>
2209.572

> <ROCS_Rank>
471                 

$$$$
untitled-dbase-174630_17
  -OEChem-08222312023D

 37 38  0     0  0  0  0  0  0999 V2000
   -8.8632    6.1832  -10.6503 C   0  0  0  0  0  0  0  0  0  0  0  0
   -9.0943    3.6445  -11.7968 C   0  0  0  0  0  0  0  0  0  0  0  0
   -8.9031    5.0526   -9.8274 C   0  0  0  0  0  0  0  0  0  0  0  0
   -9.0222    3.7840  -10.4089 C   0  0  0  0  0  0  0  0  0  0  0  0
   -9.0677    4.7786  -12.6081 C   0  0  0  0  0  0  0  0  0  0  0  0
   -8.9549    6.0457  -12.0360 C   0  0  0  0  0  0  0  0  0  0  0  0
   -9.1266    2.6713   -8.2183 C   0  0  0  0  0  0  0  0  0  0  0  0
   -8.6063    5.4623  -14.9809 C   0  0  0  0  0  0  0  0  0  0  0  0
   -8.7108    5.1660   -8.3426 C   0  0  0  0  0  0  0  0  0  0  0  0
   -9.4180    4.0318   -7.6159 C   0  0  0  0  0  0  0  0  0  0  0  0
   -6.6489    4.5910  -16.8753 C   0  0  0  0  0  0  0  0  0  0  0  0
   -8.5333    4.5718  -18.5359 C   0  0  0  0  0  0  0  0  0  0  0  0
   -7.8538    6.7272  -17.4403 C   0  0  0  0  0  0  0  0  0  0  0  0
   -7.9885    5.2156  -17.2628 C   0  0  0  0  0  0  0  0  0  0  0  0
   -9.0406    2.6358   -9.5969 N   0  0  0  0  0  0  0  0  0  0  0  0
   -9.1501    4.6435  -13.9945 N   0  0  0  0  0  0  0  0  0  0  0  0
   -9.0691    1.6611   -7.5171 O   0  0  0  0  0  0  0  0  0  0  0  0
   -7.9399    6.4768  -14.8160 O   0  0  0  0  0  0  0  0  0  0  0  0
   -8.9302    4.9616  -16.2138 O   0  0  0  0  0  0  0  0  0  0  0  0
   -8.9196    7.1401  -12.8098 F   0  0  0  0  0  0  0  0  0  0  0  0
   -8.7513    7.1745  -10.2192 H   0  0  0  0  0  0  0  0  0  0  0  0
   -9.1767    2.6565  -12.2446 H   0  0  0  0  0  0  0  0  0  0  0  0
   -7.6348    5.1317   -8.1321 H   0  0  0  0  0  0  0  0  0  0  0  0
   -9.0946    6.1246   -7.9751 H   0  0  0  0  0  0  0  0  0  0  0  0
  -10.5052    4.1755   -7.6542 H   0  0  0  0  0  0  0  0  0  0  0  0
   -9.1179    4.0257   -6.5624 H   0  0  0  0  0  0  0  0  0  0  0  0
   -6.2544    5.0504  -15.9619 H   0  0  0  0  0  0  0  0  0  0  0  0
   -6.7392    3.5123  -16.7109 H   0  0  0  0  0  0  0  0  0  0  0  0
   -5.8981    4.7605  -17.6556 H   0  0  0  0  0  0  0  0  0  0  0  0
   -9.4944    5.0169  -18.8177 H   0  0  0  0  0  0  0  0  0  0  0  0
   -8.7211    3.5029  -18.3832 H   0  0  0  0  0  0  0  0  0  0  0  0
   -7.8393    4.6855  -19.3750 H   0  0  0  0  0  0  0  0  0  0  0  0
   -8.8145    7.1755  -17.7182 H   0  0  0  0  0  0  0  0  0  0  0  0
   -7.4989    7.2108  -16.5244 H   0  0  0  0  0  0  0  0  0  0  0  0
   -7.1560    6.9637  -18.2517 H   0  0  0  0  0  0  0  0  0  0  0  0
   -8.9877    1.7279  -10.0501 H   0  0  0  0  0  0  0  0  0  0  0  0
   -9.6815    3.8341  -14.3315 H   0  0  0  0  0  0  0  0  0  0  0  0
  1  3  1  0  0  0  0
  1  6  2  0  0  0  0
  2  4  1  0  0  0  0
  2  5  2  0  0  0  0
  3  4  2  0  0  0  0
  3  9  1  0  0  0  0
  4 15  1  0  0  0  0
  5  6  1  0  0  0  0
  5 16  1  0  0  0  0
  6 20  1  0  0  0  0
  7 10  1  0  0  0  0
  7 15  1  0  0  0  0
  7 17  2  0  0  0  0
  8 16  1  0  0  0  0
  8 18  2  0  0  0  0
  8 19  1  0  0  0  0
  9 10  1  0  0  0  0
 11 14  1  0  0  0  0
 12 14  1  0  0  0  0
 13 14  1  0  0  0  0
 14 19  1  0  0  0  0
  1 21  1  0  0  0  0
  2 22  1  0  0  0  0
  9 23  1  0  0  0  0
  9 24  1  0  0  0  0
 10 25  1  0  0  0  0
 10 26  1  0  0  0  0
 11 27  1  0  0  0  0
 11 28  1  0  0  0  0
 11 29  1  0  0  0  0
 12 30  1  0  0  0  0
 12 31  1  0  0  0  0
 12 32  1  0  0  0  0
 13 33  1  0  0  0  0
 13 34  1  0  0  0  0
 13 35  1  0  0  0  0
 15 36  1  0  0  0  0
 16 37  1  0  0  0  0
M  END
> <id>
EN300-12420143

> <smiles>
CC(C)(C)OC(=O)NC=1C=C2NC(=O)CCC2=CC1F

> <MDLNUMBER>
MFCD21170115

> <IUPAC Name>
tert-butyl N-(6-fluoro-2-oxo-1,2,3,4-tetrahydroquinolin-7-yl)carbamate

> <CAS>
1483232-22-9

> <URL>
https://www.enaminestore.com/catalog/EN300-12420143

> <ROCS_ShapeQuery>
_x0404_0B

> <ROCS_TanimotoCombo>
0.428 

> <ROCS_ShapeTanimoto>
0.355 

> <ROCS_ColorTanimoto>
0.074 

> <ROCS_RefTversky>
0.309 

> <ROCS_RefColorTversky>
0.079 

> <ROCS_RefTverskyCombo>
0.388 

> <ROCS_FitTversky>
1.713 

> <ROCS_FitColorTversky>
0.543 

> <ROCS_FitTverskyCombo>
2.256 

> <ROCS_ColorScore>
-5.671

> <ROCS_Overlap>
2061.898

> <ROCS_Rank>
472                 

$$$$
untitled-dbase-6532_1
  -OEChem-08222312023D

 31 33  0     0  0  0  0  0  0999 V2000
   -7.4219    4.0804  -15.8181 C   0  0  0  0  0  0  0  0  0  0  0  0
   -9.2020    2.8350   -9.6669 C   0  0  0  0  0  0  0  0  0  0  0  0
   -8.7502    4.6736   -8.1661 C   0  0  0  0  0  0  0  0  0  0  0  0
   -9.2600    1.9623   -8.5804 C   0  0  0  0  0  0  0  0  0  0  0  0
   -8.8083    3.8009   -7.0795 C   0  0  0  0  0  0  0  0  0  0  0  0
   -7.7917    4.2996  -14.4498 C   0  0  0  0  0  0  0  0  0  0  0  0
   -8.5371    5.7117  -12.6914 C   0  0  0  0  0  0  0  0  0  0  0  0
   -8.9470    4.1907   -9.4598 C   0  0  0  0  0  0  0  0  0  0  0  0
   -8.1952    5.5586  -14.0217 C   0  0  0  0  0  0  0  0  0  0  0  0
   -9.0632    2.4452   -7.2866 C   0  0  0  0  0  0  0  0  0  0  0  0
   -8.4624    4.6317  -11.8212 C   0  0  0  0  0  0  0  0  0  0  0  0
   -7.7626    3.2654  -13.5195 C   0  0  0  0  0  0  0  0  0  0  0  0
   -9.2548    6.4239  -10.5652 C   0  0  0  0  0  0  0  0  0  0  0  0
   -9.0313    6.9253  -11.9890 C   0  0  0  0  0  0  0  0  0  0  0  0
   -7.1226    3.9030  -16.9252 N   0  0  0  0  0  0  0  0  0  0  0  0
   -8.0968    3.3982  -12.2125 N   0  0  0  0  0  0  0  0  0  0  0  0
   -8.8891    5.0575  -10.5388 N   0  0  0  0  0  0  0  0  0  0  0  0
   -8.2673    6.6561  -14.9023 N   0  0  0  0  0  0  0  0  0  0  0  0
   -7.3589    1.9761  -13.9537 N   0  0  0  0  0  0  0  0  0  0  0  0
   -9.6745    7.1067   -9.6420 O   0  0  0  0  0  0  0  0  0  0  0  0
   -9.1199    1.6075   -6.2429 F   0  0  0  0  0  0  0  0  0  0  0  0
   -9.3565    2.4472  -10.6706 H   0  0  0  0  0  0  0  0  0  0  0  0
   -8.5485    5.7276   -7.9930 H   0  0  0  0  0  0  0  0  0  0  0  0
   -9.4576    0.9068   -8.7413 H   0  0  0  0  0  0  0  0  0  0  0  0
   -8.6563    4.1768   -6.0720 H   0  0  0  0  0  0  0  0  0  0  0  0
   -8.2816    7.7208  -11.9798 H   0  0  0  0  0  0  0  0  0  0  0  0
   -9.9821    7.2723  -12.4024 H   0  0  0  0  0  0  0  0  0  0  0  0
   -7.9769    6.5406  -15.8529 H   0  0  0  0  0  0  0  0  0  0  0  0
   -8.5175    7.5559  -14.5430 H   0  0  0  0  0  0  0  0  0  0  0  0
   -7.2911    1.2438  -13.2823 H   0  0  0  0  0  0  0  0  0  0  0  0
   -7.0638    1.8592  -14.8975 H   0  0  0  0  0  0  0  0  0  0  0  0
  1  6  1  0  0  0  0
  1 15  3  0  0  0  0
  2  4  1  0  0  0  0
  2  8  2  0  0  0  0
  3  5  2  0  0  0  0
  3  8  1  0  0  0  0
  4 10  2  0  0  0  0
  5 10  1  0  0  0  0
  6  9  2  0  0  0  0
  6 12  1  0  0  0  0
  7  9  1  0  0  0  0
  7 11  2  0  0  0  0
  7 14  1  0  0  0  0
  8 17  1  0  0  0  0
  9 18  1  0  0  0  0
 10 21  1  0  0  0  0
 11 16  1  0  0  0  0
 11 17  1  0  0  0  0
 12 16  2  0  0  0  0
 12 19  1  0  0  0  0
 13 14  1  0  0  0  0
 13 17  1  0  0  0  0
 13 20  2  0  0  0  0
  2 22  1  0  0  0  0
  3 23  1  0  0  0  0
  4 24  1  0  0  0  0
  5 25  1  0  0  0  0
 14 26  1  0  0  0  0
 14 27  1  0  0  0  0
 18 28  1  0  0  0  0
 18 29  1  0  0  0  0
 19 30  1  0  0  0  0
 19 31  1  0  0  0  0
M  END
> <id>
EN300-02693

> <smiles>
NC=1N=C2N(C(=O)CC2=C(N)C1C#N)C=3C=CC(F)=CC3

> <MDLNUMBER>
MFCD06660631

> <IUPAC Name>
4,6-diamino-1-(4-fluorophenyl)-2-oxo-1H,2H,3H-pyrrolo[2,3-b]pyridine-5-carbonitrile

> <CAS>
878466-56-9

> <URL>
https://www.enaminestore.com/catalog/EN300-02693

> <ROCS_ShapeQuery>
_x0404_0B

> <ROCS_TanimotoCombo>
0.428 

> <ROCS_ShapeTanimoto>
0.289 

> <ROCS_ColorTanimoto>
0.140 

> <ROCS_RefTversky>
0.267 

> <ROCS_RefColorTversky>
0.145 

> <ROCS_RefTverskyCombo>
0.412 

> <ROCS_FitTversky>
1.391 

> <ROCS_FitColorTversky>
0.788 

> <ROCS_FitTverskyCombo>
2.180 

> <ROCS_ColorScore>
-10.489

> <ROCS_Overlap>
1783.006

> <ROCS_Rank>
473                 

$$$$
untitled-dbase-80297_39
  -OEChem-08222312023D

 44 47  0     0  0  0  0  0  0999 V2000
   -9.1729    1.5983   -7.5114 C   0  0  0  0  0  0  0  0  0  0  0  0
   -8.8652    2.6715   -6.6752 C   0  0  0  0  0  0  0  0  0  0  0  0
   -9.3377    1.7980   -8.8830 C   0  0  0  0  0  0  0  0  0  0  0  0
   -8.7189    3.9550   -7.2019 C   0  0  0  0  0  0  0  0  0  0  0  0
   -9.1939    3.0799   -9.4246 C   0  0  0  0  0  0  0  0  0  0  0  0
   -8.8811    4.1669   -8.5750 C   0  0  0  0  0  0  0  0  0  0  0  0
   -9.2124    4.6086  -11.3882 C   0  0  0  0  0  0  0  0  0  0  0  0
   -9.2989    5.1813  -12.6771 C   0  0  0  0  0  0  0  0  0  0  0  0
   -8.9083    5.6408  -10.5345 C   0  0  0  0  0  0  0  0  0  0  0  0
   -9.0399    6.5257  -12.5112 C   0  0  0  0  0  0  0  0  0  0  0  0
   -9.3772    3.2606  -10.9009 C   0  0  0  0  0  0  0  0  0  0  0  0
   -8.7187    5.5506   -9.1201 C   0  0  0  0  0  0  0  0  0  0  0  0
   -9.5959    4.5364  -13.9509 C   0  0  0  0  0  0  0  0  0  0  0  0
   -8.6587    5.0000  -17.3889 C   0  0  0  0  0  0  0  0  0  0  0  0
   -7.0564    6.2680  -15.9071 C   0  0  0  0  0  0  0  0  0  0  0  0
   -8.8605    3.9903  -16.2604 C   0  0  0  0  0  0  0  0  0  0  0  0
   -7.2885    5.2246  -14.8170 C   0  0  0  0  0  0  0  0  0  0  0  0
   -7.2761    5.6661  -17.3043 C   0  0  0  0  0  0  0  0  0  0  0  0
   -8.9754    7.6633  -13.4420 C   0  0  0  0  0  0  0  0  0  0  0  0
   -7.1201    6.7327  -18.3855 C   0  0  0  0  0  0  0  0  0  0  0  0
   -8.6183    4.6163  -14.9595 N   0  0  0  0  0  0  0  0  0  0  0  0
   -9.6485    2.3180  -11.6324 O   0  0  0  0  0  0  0  0  0  0  0  0
   -8.4475    6.4965   -8.3927 O   0  0  0  0  0  0  0  0  0  0  0  0
  -10.6688    3.9524  -14.1137 O   0  0  0  0  0  0  0  0  0  0  0  0
   -8.7997    6.8161  -11.2017 O   0  0  0  0  0  0  0  0  0  0  0  0
   -9.2864    0.6021   -7.0926 H   0  0  0  0  0  0  0  0  0  0  0  0
   -8.7382    2.5067   -5.6090 H   0  0  0  0  0  0  0  0  0  0  0  0
   -9.5771    0.9432   -9.5097 H   0  0  0  0  0  0  0  0  0  0  0  0
   -8.4796    4.7730   -6.5280 H   0  0  0  0  0  0  0  0  0  0  0  0
   -8.7679    4.4910  -18.3539 H   0  0  0  0  0  0  0  0  0  0  0  0
   -9.4477    5.7615  -17.3389 H   0  0  0  0  0  0  0  0  0  0  0  0
   -7.7341    7.1168  -15.7494 H   0  0  0  0  0  0  0  0  0  0  0  0
   -6.0341    6.6561  -15.8263 H   0  0  0  0  0  0  0  0  0  0  0  0
   -9.8724    3.5761  -16.3107 H   0  0  0  0  0  0  0  0  0  0  0  0
   -8.1576    3.1550  -16.3605 H   0  0  0  0  0  0  0  0  0  0  0  0
   -6.5508    4.4169  -14.8958 H   0  0  0  0  0  0  0  0  0  0  0  0
   -7.1573    5.6879  -13.8360 H   0  0  0  0  0  0  0  0  0  0  0  0
   -6.5109    4.8969  -17.4737 H   0  0  0  0  0  0  0  0  0  0  0  0
   -9.9605    8.1494  -13.5516 H   0  0  0  0  0  0  0  0  0  0  0  0
   -8.2597    8.4367  -13.1087 H   0  0  0  0  0  0  0  0  0  0  0  0
   -8.6417    7.3599  -14.4511 H   0  0  0  0  0  0  0  0  0  0  0  0
   -7.8668    7.5129  -18.2456 H   0  0  0  0  0  0  0  0  0  0  0  0
   -7.2533    6.2844  -19.3689 H   0  0  0  0  0  0  0  0  0  0  0  0
   -6.1269    7.1755  -18.3273 H   0  0  0  0  0  0  0  0  0  0  0  0
  1  2  2  0  0  0  0
  1  3  1  0  0  0  0
  2  4  1  0  0  0  0
  3  5  2  0  0  0  0
  4  6  2  0  0  0  0
  5  6  1  0  0  0  0
  5 11  1  0  0  0  0
  6 12  1  0  0  0  0
  7  8  1  0  0  0  0
  7  9  2  0  0  0  0
  7 11  1  0  0  0  0
  8 10  2  0  0  0  0
  8 13  1  0  0  0  0
  9 12  1  0  0  0  0
  9 25  1  0  0  0  0
 10 19  1  0  0  0  0
 10 25  1  0  0  0  0
 11 22  2  0  0  0  0
 12 23  2  0  0  0  0
 13 21  1  0  0  0  0
 13 24  2  0  0  0  0
 14 16  1  0  0  0  0
 14 18  1  0  0  0  0
 15 17  1  0  0  0  0
 15 18  1  0  0  0  0
 16 21  1  0  0  0  0
 17 21  1  0  0  0  0
 18 20  1  0  0  0  0
  1 26  1  0  0  0  0
  2 27  1  0  0  0  0
  3 28  1  0  0  0  0
  4 29  1  0  0  0  0
 14 30  1  0  0  0  0
 14 31  1  0  0  0  0
 15 32  1  0  0  0  0
 15 33  1  0  0  0  0
 16 34  1  0  0  0  0
 16 35  1  0  0  0  0
 17 36  1  0  0  0  0
 17 37  1  0  0  0  0
 18 38  1  0  0  0  0
 19 39  1  0  0  0  0
 19 40  1  0  0  0  0
 19 41  1  0  0  0  0
 20 42  1  0  0  0  0
 20 43  1  0  0  0  0
 20 44  1  0  0  0  0
M  END
> <id>
EN300-26868579

> <smiles>
CC1CCN(CC1)C(=O)C2=C(C)OC=3C(=O)C=4C=CC=CC4C(=O)C23

> <IUPAC Name>
2-methyl-3-(4-methylpiperidine-1-carbonyl)-4H,9H-naphtho[2,3-b]furan-4,9-dione

> <CAS>
690640-77-8

> <URL>
https://www.enaminestore.com/catalog/EN300-26868579

> <ROCS_ShapeQuery>
_x0404_0B

> <ROCS_TanimotoCombo>
0.428 

> <ROCS_ShapeTanimoto>
0.366 

> <ROCS_ColorTanimoto>
0.063 

> <ROCS_RefTversky>
0.326 

> <ROCS_RefColorTversky>
0.068 

> <ROCS_RefTverskyCombo>
0.394 

> <ROCS_FitTversky>
1.503 

> <ROCS_FitColorTversky>
0.432 

> <ROCS_FitTverskyCombo>
1.935 

> <ROCS_ColorScore>
-4.922

> <ROCS_Overlap>
2178.333

> <ROCS_Rank>
474                 

$$$$
untitled-dbase-147551_563
  -OEChem-08222312023D

 43 45  0     0  0  0  0  0  0999 V2000
   -8.4430    3.7254  -16.9656 C   0  0  0  0  0  0  0  0  0  0  0  0
   -7.8249    4.2333  -18.1051 C   0  0  0  0  0  0  0  0  0  0  0  0
   -8.5969    4.6243  -15.9158 C   0  0  0  0  0  0  0  0  0  0  0  0
   -8.1607    5.9414  -16.0045 C   0  0  0  0  0  0  0  0  0  0  0  0
   -7.4150    5.5624  -18.1199 C   0  0  0  0  0  0  0  0  0  0  0  0
   -9.0080    5.7513  -14.0615 C   0  0  0  0  0  0  0  0  0  0  0  0
   -8.3918    5.1570   -8.8124 C   0  0  0  0  0  0  0  0  0  0  0  0
  -10.1241    4.8012  -12.0327 C   0  0  0  0  0  0  0  0  0  0  0  0
   -9.0110    6.9915  -11.9084 C   0  0  0  0  0  0  0  0  0  0  0  0
   -9.1215    4.2087  -11.0431 C   0  0  0  0  0  0  0  0  0  0  0  0
   -7.9961    6.4231  -10.9129 C   0  0  0  0  0  0  0  0  0  0  0  0
  -10.5155    4.0214   -7.7696 C   0  0  0  0  0  0  0  0  0  0  0  0
   -9.2743    1.8380   -7.7357 C   0  0  0  0  0  0  0  0  0  0  0  0
   -8.7092    3.6239   -6.0626 C   0  0  0  0  0  0  0  0  0  0  0  0
   -9.1757    3.3420   -7.4901 C   0  0  0  0  0  0  0  0  0  0  0  0
   -7.5574    6.4502  -17.1076 N   0  0  0  0  0  0  0  0  0  0  0  0
   -8.4225    6.6294  -14.8464 N   0  0  0  0  0  0  0  0  0  0  0  0
   -9.1361    4.5276  -14.6620 N   0  0  0  0  0  0  0  0  0  0  0  0
   -9.4923    5.9020  -12.7668 N   0  0  0  0  0  0  0  0  0  0  0  0
   -8.5409    5.2639  -10.1982 N   0  0  0  0  0  0  0  0  0  0  0  0
   -8.4244    6.1106   -8.0366 O   0  0  0  0  0  0  0  0  0  0  0  0
   -8.2010    3.8648   -8.4000 O   0  0  0  0  0  0  0  0  0  0  0  0
   -6.6495    6.2136  -19.5170 Cl  0  0  0  0  0  0  0  0  0  0  0  0
   -8.7803    2.6981  -16.9032 H   0  0  0  0  0  0  0  0  0  0  0  0
   -7.6711    3.5871  -18.9644 H   0  0  0  0  0  0  0  0  0  0  0  0
  -10.4465    4.0186  -12.7217 H   0  0  0  0  0  0  0  0  0  0  0  0
  -11.0032    5.1730  -11.5039 H   0  0  0  0  0  0  0  0  0  0  0  0
   -9.8369    7.4361  -11.3571 H   0  0  0  0  0  0  0  0  0  0  0  0
   -8.5477    7.7614  -12.5215 H   0  0  0  0  0  0  0  0  0  0  0  0
   -9.6054    3.4620  -10.4156 H   0  0  0  0  0  0  0  0  0  0  0  0
   -8.2966    3.7253  -11.5678 H   0  0  0  0  0  0  0  0  0  0  0  0
   -7.0862    6.1351  -11.4375 H   0  0  0  0  0  0  0  0  0  0  0  0
   -7.7334    7.1711  -10.1636 H   0  0  0  0  0  0  0  0  0  0  0  0
  -10.4490    5.1011   -7.5945 H   0  0  0  0  0  0  0  0  0  0  0  0
  -10.8443    3.8560   -8.8008 H   0  0  0  0  0  0  0  0  0  0  0  0
  -11.2928    3.6460   -7.0941 H   0  0  0  0  0  0  0  0  0  0  0  0
   -8.3152    1.3464   -7.5364 H   0  0  0  0  0  0  0  0  0  0  0  0
   -9.5164    1.6287   -8.7840 H   0  0  0  0  0  0  0  0  0  0  0  0
  -10.0391    1.3747   -7.1041 H   0  0  0  0  0  0  0  0  0  0  0  0
   -7.7482    3.1367   -5.8619 H   0  0  0  0  0  0  0  0  0  0  0  0
   -8.5973    4.6975   -5.8795 H   0  0  0  0  0  0  0  0  0  0  0  0
   -9.4197    3.2184   -5.3333 H   0  0  0  0  0  0  0  0  0  0  0  0
   -9.5559    3.7040  -14.2522 H   0  0  0  0  0  0  0  0  0  0  0  0
  1  2  1  0  0  0  0
  1  3  2  0  0  0  0
  2  5  2  0  0  0  0
  3  4  1  0  0  0  0
  3 18  1  0  0  0  0
  4 16  2  0  0  0  0
  4 17  1  0  0  0  0
  5 16  1  0  0  0  0
  5 23  1  0  0  0  0
  6 17  2  0  0  0  0
  6 18  1  0  0  0  0
  6 19  1  0  0  0  0
  7 20  1  0  0  0  0
  7 21  2  0  0  0  0
  7 22  1  0  0  0  0
  8 10  1  0  0  0  0
  8 19  1  0  0  0  0
  9 11  1  0  0  0  0
  9 19  1  0  0  0  0
 10 20  1  0  0  0  0
 11 20  1  0  0  0  0
 12 15  1  0  0  0  0
 13 15  1  0  0  0  0
 14 15  1  0  0  0  0
 15 22  1  0  0  0  0
  1 24  1  0  0  0  0
  2 25  1  0  0  0  0
  8 26  1  0  0  0  0
  8 27  1  0  0  0  0
  9 28  1  0  0  0  0
  9 29  1  0  0  0  0
 10 30  1  0  0  0  0
 10 31  1  0  0  0  0
 11 32  1  0  0  0  0
 11 33  1  0  0  0  0
 12 34  1  0  0  0  0
 12 35  1  0  0  0  0
 12 36  1  0  0  0  0
 13 37  1  0  0  0  0
 13 38  1  0  0  0  0
 13 39  1  0  0  0  0
 14 40  1  0  0  0  0
 14 41  1  0  0  0  0
 14 42  1  0  0  0  0
 18 43  1  0  0  0  0
M  END
> <id>
EN300-7461896

> <smiles>
CC(C)(C)OC(=O)N1CCN(CC1)C2=NC=3N=C(Cl)C=CC3N2

> <MDLNUMBER>
MFCD33549477

> <IUPAC Name>
tert-butyl 4-{5-chloro-1H-imidazo[4,5-b]pyridin-2-yl}piperazine-1-carboxylate

> <CAS>
1883538-33-7

> <URL>
https://www.enaminestore.com/catalog/EN300-7461896

> <ROCS_ShapeQuery>
_x0404_0B

> <ROCS_TanimotoCombo>
0.428 

> <ROCS_ShapeTanimoto>
0.355 

> <ROCS_ColorTanimoto>
0.074 

> <ROCS_RefTversky>
0.315 

> <ROCS_RefColorTversky>
0.081 

> <ROCS_RefTverskyCombo>
0.395 

> <ROCS_FitTversky>
1.560 

> <ROCS_FitColorTversky>
0.471 

> <ROCS_FitTverskyCombo>
2.030 

> <ROCS_ColorScore>
-5.818

> <ROCS_Overlap>
2100.463

> <ROCS_Rank>
475                 

$$$$
untitled-dbase-175317_0
  -OEChem-08222312023D

 37 40  0     1  0  0  0  0  0999 V2000
   -7.0890   -0.1023  -12.1797 C   0  0  0  0  0  0  0  0  0  0  0  0
   -7.4044    1.0015  -11.8275 C   0  0  0  0  0  0  0  0  0  0  0  0
   -9.1092    7.1538  -10.7209 C   0  0  0  0  0  0  0  0  0  0  0  0
   -7.9285    2.4916  -10.0332 C   0  0  0  0  0  0  0  0  0  0  0  0
   -8.8889    6.0757   -9.8666 C   0  0  0  0  0  0  0  0  0  0  0  0
   -8.2958    3.7341   -9.5213 C   0  0  0  0  0  0  0  0  0  0  0  0
   -8.9650    6.9945  -12.0960 C   0  0  0  0  0  0  0  0  0  0  0  0
   -7.7810    2.3194  -11.4064 C   0  0  0  0  0  0  0  0  0  0  0  0
   -8.5205    4.8222  -10.3780 C   0  0  0  0  0  0  0  0  0  0  0  0
   -8.3728    4.6531  -11.7777 C   0  0  0  0  0  0  0  0  0  0  0  0
   -8.5987    5.7491  -12.6222 C   0  0  0  0  0  0  0  0  0  0  0  0
   -8.0029    3.3957  -12.2748 C   0  0  0  0  0  0  0  0  0  0  0  0
   -8.4506    5.5964  -14.0868 C   0  0  0  0  0  0  0  0  0  0  0  0
   -7.8439    3.1957  -13.7321 C   0  0  0  0  0  0  0  0  0  0  0  0
   -8.0925    5.1215  -18.7041 C   0  0  0  0  0  0  0  0  0  0  0  0
   -6.9071    4.9950  -16.4963 C   0  0  0  0  0  0  0  0  0  0  0  0
   -9.2110    4.2739  -18.1465 C   0  0  0  0  0  0  0  0  0  0  0  0
   -9.3518    4.4569  -16.6463 C   0  0  0  0  0  0  0  0  0  0  0  0
   -8.0319    4.1211  -15.9708 C   0  0  2  0  0  0  0  0  0  0  0  0
   -7.0465    5.3896  -17.8265 N   0  0  0  0  0  0  0  0  0  0  0  0
   -8.1116    4.3112  -14.5469 N   0  0  0  0  0  0  0  0  0  0  0  0
   -8.6227    6.5768  -14.8078 O   0  0  0  0  0  0  0  0  0  0  0  0
   -7.4887    2.1147  -14.1966 O   0  0  0  0  0  0  0  0  0  0  0  0
   -8.0959    5.4986  -19.8757 O   0  0  0  0  0  0  0  0  0  0  0  0
   -5.9104    5.2720  -15.8292 O   0  0  0  0  0  0  0  0  0  0  0  0
   -6.8089   -1.0812  -12.4918 H   0  0  0  0  0  0  0  0  0  0  0  0
   -9.3936    8.1195  -10.3131 H   0  0  0  0  0  0  0  0  0  0  0  0
   -7.7622    1.6690   -9.3409 H   0  0  0  0  0  0  0  0  0  0  0  0
   -9.0075    6.2240   -8.7953 H   0  0  0  0  0  0  0  0  0  0  0  0
   -8.4049    3.8451   -8.4444 H   0  0  0  0  0  0  0  0  0  0  0  0
   -9.1433    7.8514  -12.7400 H   0  0  0  0  0  0  0  0  0  0  0  0
  -10.1450    4.5615  -18.6413 H   0  0  0  0  0  0  0  0  0  0  0  0
   -9.0009    3.2275  -18.3946 H   0  0  0  0  0  0  0  0  0  0  0  0
   -9.6385    5.4949  -16.4319 H   0  0  0  0  0  0  0  0  0  0  0  0
  -10.1512    3.8079  -16.2705 H   0  0  0  0  0  0  0  0  0  0  0  0
   -7.7599    3.0741  -16.1553 H   0  0  0  0  0  0  0  0  0  0  0  0
   -6.2843    5.9458  -18.2044 H   0  0  0  0  0  0  0  0  0  0  0  0
  1  2  3  0  0  0  0
  2  8  1  0  0  0  0
  3  5  2  0  0  0  0
  3  7  1  0  0  0  0
  4  6  1  0  0  0  0
  4  8  2  0  0  0  0
  5  9  1  0  0  0  0
  6  9  2  0  0  0  0
  7 11  2  0  0  0  0
  8 12  1  0  0  0  0
  9 10  1  0  0  0  0
 10 11  1  0  0  0  0
 10 12  2  0  0  0  0
 11 13  1  0  0  0  0
 12 14  1  0  0  0  0
 13 21  1  0  0  0  0
 13 22  2  0  0  0  0
 14 21  1  0  0  0  0
 14 23  2  0  0  0  0
 15 17  1  0  0  0  0
 15 20  1  0  0  0  0
 15 24  2  0  0  0  0
 16 19  1  0  0  0  0
 16 20  1  0  0  0  0
 16 25  2  0  0  0  0
 17 18  1  0  0  0  0
 18 19  1  0  0  0  0
 19 21  1  0  0  0  0
  1 26  1  0  0  0  0
  3 27  1  0  0  0  0
  4 28  1  0  0  0  0
  5 29  1  0  0  0  0
  6 30  1  0  0  0  0
  7 31  1  0  0  0  0
 17 32  1  0  0  0  0
 17 33  1  0  0  0  0
 18 34  1  0  0  0  0
 18 35  1  0  0  0  0
 19 36  1  0  0  0  0
 20 37  1  0  0  0  0
M  END
> <id>
EN300-39926902

> <smiles>
O=C1CCC(N2C(=O)C=3C=CC=C4C=CC(C#C)=C(C2=O)C34)C(=O)N1

> <IUPAC Name>
3-(2,6-dioxopiperidin-3-yl)-6-ethynyl-3-azatricyclo[7.3.1.0,5,13]trideca-1(13),5,7,9,11-pentaene-2,4-dione

> <URL>
https://www.enaminestore.com/catalog/EN300-39926902

> <ROCS_ShapeQuery>
_x0404_0B

> <ROCS_TanimotoCombo>
0.428 

> <ROCS_ShapeTanimoto>
0.346 

> <ROCS_ColorTanimoto>
0.083 

> <ROCS_RefTversky>
0.314 

> <ROCS_RefColorTversky>
0.090 

> <ROCS_RefTverskyCombo>
0.404 

> <ROCS_FitTversky>
1.420 

> <ROCS_FitColorTversky>
0.492 

> <ROCS_FitTverskyCombo>
1.911 

> <ROCS_ColorScore>
-6.535

> <ROCS_Overlap>
2096.680

> <ROCS_Rank>
476                 

$$$$
untitled-dbase-4556_1778
  -OEChem-08222312023D

 43 44  0     1  0  0  0  0  0999 V2000
   -9.6482    4.5477  -17.1827 C   0  0  0  0  0  0  0  0  0  0  0  0
   -9.2214    4.3843  -15.8649 C   0  0  0  0  0  0  0  0  0  0  0  0
   -8.7858    5.0960  -18.1322 C   0  0  0  0  0  0  0  0  0  0  0  0
   -7.0700    5.3177  -16.4459 C   0  0  0  0  0  0  0  0  0  0  0  0
   -7.9324    4.7694  -15.4964 C   0  0  0  0  0  0  0  0  0  0  0  0
   -7.4968    5.4810  -17.7638 C   0  0  0  0  0  0  0  0  0  0  0  0
   -8.8589    4.5742   -9.9322 C   0  0  0  0  0  0  0  0  0  0  0  0
   -7.7195    5.8496  -13.1990 C   0  0  0  0  0  0  0  0  0  0  0  0
   -8.8222    5.6614  -12.1610 C   0  0  0  0  0  0  0  0  0  0  0  0
   -7.9715    3.3207  -11.9135 C   0  0  0  0  0  0  0  0  0  0  0  0
   -7.4675    4.5904  -14.0570 C   0  0  1  0  0  0  0  0  0  0  0  0
   -8.0873    3.3210  -13.4356 C   0  0  1  0  0  0  0  0  0  0  0  0
  -10.7008    4.2293   -7.7704 C   0  0  0  0  0  0  0  0  0  0  0  0
   -9.8330    1.8753   -7.6492 C   0  0  0  0  0  0  0  0  0  0  0  0
   -8.2792    3.8040   -7.2321 C   0  0  0  0  0  0  0  0  0  0  0  0
   -9.4981    3.3194   -8.0159 C   0  0  0  0  0  0  0  0  0  0  0  0
   -8.5599    4.5109  -11.2971 N   0  0  0  0  0  0  0  0  0  0  0  0
   -8.8328    5.6048   -9.2624 O   0  0  0  0  0  0  0  0  0  0  0  0
   -7.4314    2.1617  -13.9490 O   0  0  0  0  0  0  0  0  0  0  0  0
   -9.1827    3.3479   -9.4127 O   0  0  0  0  0  0  0  0  0  0  0  0
   -6.6687    6.0079  -18.6753 F   0  0  0  0  0  0  0  0  0  0  0  0
  -10.6518    4.2475  -17.4699 H   0  0  0  0  0  0  0  0  0  0  0  0
   -9.9004    3.9564  -15.1319 H   0  0  0  0  0  0  0  0  0  0  0  0
   -9.1184    5.2235  -19.1579 H   0  0  0  0  0  0  0  0  0  0  0  0
   -6.0638    5.6200  -16.1685 H   0  0  0  0  0  0  0  0  0  0  0  0
   -7.9829    6.7034  -13.8506 H   0  0  0  0  0  0  0  0  0  0  0  0
   -6.7856    6.1457  -12.6890 H   0  0  0  0  0  0  0  0  0  0  0  0
   -8.8932    6.5465  -11.5122 H   0  0  0  0  0  0  0  0  0  0  0  0
   -9.7922    5.5548  -12.6648 H   0  0  0  0  0  0  0  0  0  0  0  0
   -8.4128    2.3948  -11.5105 H   0  0  0  0  0  0  0  0  0  0  0  0
   -6.9107    3.2865  -11.6069 H   0  0  0  0  0  0  0  0  0  0  0  0
   -6.3546    4.4225  -14.1330 H   0  0  0  0  0  0  0  0  0  0  0  0
   -9.1579    3.2443  -13.7181 H   0  0  0  0  0  0  0  0  0  0  0  0
  -10.4644    5.2669   -8.0324 H   0  0  0  0  0  0  0  0  0  0  0  0
  -11.5716    3.9131   -8.3539 H   0  0  0  0  0  0  0  0  0  0  0  0
  -10.9777    4.2338   -6.7100 H   0  0  0  0  0  0  0  0  0  0  0  0
   -8.9728    1.2189   -7.8238 H   0  0  0  0  0  0  0  0  0  0  0  0
  -10.6461    1.4919   -8.2762 H   0  0  0  0  0  0  0  0  0  0  0  0
  -10.1316    1.7838   -6.5999 H   0  0  0  0  0  0  0  0  0  0  0  0
   -7.4164    3.1515   -7.4080 H   0  0  0  0  0  0  0  0  0  0  0  0
   -8.0017    4.8262   -7.5093 H   0  0  0  0  0  0  0  0  0  0  0  0
   -8.4732    3.7761   -6.1537 H   0  0  0  0  0  0  0  0  0  0  0  0
   -7.5263    2.1977  -14.9128 H   0  0  0  0  0  0  0  0  0  0  0  0
  1  2  1  0  0  0  0
  1  3  2  0  0  0  0
  2  5  2  0  0  0  0
  3  6  1  0  0  0  0
  4  5  1  0  0  0  0
  4  6  2  0  0  0  0
  5 11  1  0  0  0  0
  6 21  1  0  0  0  0
  7 17  1  0  0  0  0
  7 18  2  0  0  0  0
  7 20  1  0  0  0  0
  8  9  1  0  0  0  0
  8 11  1  0  0  0  0
  9 17  1  0  0  0  0
 10 12  1  0  0  0  0
 10 17  1  0  0  0  0
 11 12  1  0  0  0  0
 12 19  1  0  0  0  0
 13 16  1  0  0  0  0
 14 16  1  0  0  0  0
 15 16  1  0  0  0  0
 16 20  1  0  0  0  0
  1 22  1  0  0  0  0
  2 23  1  0  0  0  0
  3 24  1  0  0  0  0
  4 25  1  0  0  0  0
  8 26  1  0  0  0  0
  8 27  1  0  0  0  0
  9 28  1  0  0  0  0
  9 29  1  0  0  0  0
 10 30  1  0  0  0  0
 10 31  1  0  0  0  0
 11 32  1  0  0  0  0
 12 33  1  0  0  0  0
 13 34  1  0  0  0  0
 13 35  1  0  0  0  0
 13 36  1  0  0  0  0
 14 37  1  0  0  0  0
 14 38  1  0  0  0  0
 14 39  1  0  0  0  0
 15 40  1  0  0  0  0
 15 41  1  0  0  0  0
 15 42  1  0  0  0  0
 19 43  1  0  0  0  0
M  END
> <id>
EN300-94563

> <smiles>
CC(C)(C)OC(=O)N1CCC(C(O)C1)C=2C=CC=C(F)C2

> <MDLNUMBER>
MFCD08461336

> <IUPAC Name>
tert-butyl 4-(3-fluorophenyl)-3-hydroxypiperidine-1-carboxylate

> <CAS>
1187173-59-6

> <URL>
https://www.enaminestore.com/catalog/EN300-94563

> <ROCS_ShapeQuery>
_x0404_0B

> <ROCS_TanimotoCombo>
0.428 

> <ROCS_ShapeTanimoto>
0.338 

> <ROCS_ColorTanimoto>
0.090 

> <ROCS_RefTversky>
0.299 

> <ROCS_RefColorTversky>
0.094 

> <ROCS_RefTverskyCombo>
0.393 

> <ROCS_FitTversky>
1.626 

> <ROCS_FitColorTversky>
0.714 

> <ROCS_FitTverskyCombo>
2.340 

> <ROCS_ColorScore>
-6.767

> <ROCS_Overlap>
1994.580

> <ROCS_Rank>
477                 

$$$$
untitled-dbase-91476_2487
  -OEChem-08222312023D

 53 55  0     0  0  0  0  0  0999 V2000
   -9.9591    3.9054  -18.5953 C   0  0  0  0  0  0  0  0  0  0  0  0
  -10.0108    4.2931  -17.2564 C   0  0  0  0  0  0  0  0  0  0  0  0
   -8.8396    4.2140  -19.3680 C   0  0  0  0  0  0  0  0  0  0  0  0
   -7.8234    5.2980  -17.4630 C   0  0  0  0  0  0  0  0  0  0  0  0
   -8.9430    4.9894  -16.6902 C   0  0  0  0  0  0  0  0  0  0  0  0
   -7.7718    4.9103  -18.8019 C   0  0  0  0  0  0  0  0  0  0  0  0
   -8.9104    4.7889   -8.6753 C   0  0  0  0  0  0  0  0  0  0  0  0
  -10.4093    5.6986  -14.6718 C   0  0  0  0  0  0  0  0  0  0  0  0
   -8.2857    4.3609  -14.3412 C   0  0  0  0  0  0  0  0  0  0  0  0
  -10.3941    6.2145  -13.2250 C   0  0  0  0  0  0  0  0  0  0  0  0
   -8.9041    4.1800  -12.9474 C   0  0  0  0  0  0  0  0  0  0  0  0
   -8.1920    6.4054  -11.9079 C   0  0  0  0  0  0  0  0  0  0  0  0
   -7.7013    5.8325  -10.5848 C   0  0  0  0  0  0  0  0  0  0  0  0
  -10.0027    5.2166  -10.9164 C   0  0  0  0  0  0  0  0  0  0  0  0
   -9.0003    5.4141  -15.2227 C   0  0  0  0  0  0  0  0  0  0  0  0
   -9.3837    5.4968  -12.3027 C   0  0  0  0  0  0  0  0  0  0  0  0
   -9.2508    2.7545   -6.6970 C   0  0  0  0  0  0  0  0  0  0  0  0
  -11.5882    2.5352   -7.5900 C   0  0  0  0  0  0  0  0  0  0  0  0
   -9.6282    2.0461   -9.0824 C   0  0  0  0  0  0  0  0  0  0  0  0
  -10.1448    2.9026   -7.9273 C   0  0  0  0  0  0  0  0  0  0  0  0
   -8.8818    5.2403   -9.9838 N   0  0  0  0  0  0  0  0  0  0  0  0
   -7.9540    4.8442   -7.9054 O   0  0  0  0  0  0  0  0  0  0  0  0
   -8.2682    6.6478  -15.1141 O   0  0  0  0  0  0  0  0  0  0  0  0
  -10.1332    4.2748   -8.3364 O   0  0  0  0  0  0  0  0  0  0  0  0
   -6.2552    5.3281  -19.8495 Br  0  0  0  0  0  0  0  0  0  0  0  0
  -10.7907    3.3633  -19.0361 H   0  0  0  0  0  0  0  0  0  0  0  0
  -10.8871    4.0483  -16.6621 H   0  0  0  0  0  0  0  0  0  0  0  0
   -8.8153    3.9046  -20.4097 H   0  0  0  0  0  0  0  0  0  0  0  0
   -6.9946    5.8412  -17.0146 H   0  0  0  0  0  0  0  0  0  0  0  0
  -11.0211    4.7913  -14.7182 H   0  0  0  0  0  0  0  0  0  0  0  0
  -10.9108    6.4484  -15.2945 H   0  0  0  0  0  0  0  0  0  0  0  0
   -7.2278    4.6420  -14.2111 H   0  0  0  0  0  0  0  0  0  0  0  0
   -8.2819    3.3854  -14.8547 H   0  0  0  0  0  0  0  0  0  0  0  0
  -10.1651    7.2925  -13.2430 H   0  0  0  0  0  0  0  0  0  0  0  0
  -11.4164    6.1408  -12.8214 H   0  0  0  0  0  0  0  0  0  0  0  0
   -9.7402    3.4666  -13.0229 H   0  0  0  0  0  0  0  0  0  0  0  0
   -8.1671    3.6981  -12.2854 H   0  0  0  0  0  0  0  0  0  0  0  0
   -8.4702    7.4604  -11.8206 H   0  0  0  0  0  0  0  0  0  0  0  0
   -7.3908    6.3303  -12.6540 H   0  0  0  0  0  0  0  0  0  0  0  0
   -6.9139    5.0836  -10.7156 H   0  0  0  0  0  0  0  0  0  0  0  0
   -7.3327    6.6156   -9.9133 H   0  0  0  0  0  0  0  0  0  0  0  0
  -10.7684    5.9325  -10.6031 H   0  0  0  0  0  0  0  0  0  0  0  0
  -10.4381    4.2113  -10.8590 H   0  0  0  0  0  0  0  0  0  0  0  0
   -8.2138    3.0173   -6.9349 H   0  0  0  0  0  0  0  0  0  0  0  0
   -9.5903    3.3903   -5.8728 H   0  0  0  0  0  0  0  0  0  0  0  0
   -9.2342    1.7155   -6.3484 H   0  0  0  0  0  0  0  0  0  0  0  0
  -12.2333    2.6401   -8.4699 H   0  0  0  0  0  0  0  0  0  0  0  0
  -11.9946    3.2094   -6.8274 H   0  0  0  0  0  0  0  0  0  0  0  0
  -11.6681    1.5072   -7.2221 H   0  0  0  0  0  0  0  0  0  0  0  0
  -10.2693    2.1522   -9.9650 H   0  0  0  0  0  0  0  0  0  0  0  0
   -8.6062    2.3210   -9.3626 H   0  0  0  0  0  0  0  0  0  0  0  0
   -9.6423    0.9831   -8.8159 H   0  0  0  0  0  0  0  0  0  0  0  0
   -8.7127    7.2842  -15.6951 H   0  0  0  0  0  0  0  0  0  0  0  0
  1  2  1  0  0  0  0
  1  3  2  0  0  0  0
  2  5  2  0  0  0  0
  3  6  1  0  0  0  0
  4  5  1  0  0  0  0
  4  6  2  0  0  0  0
  5 15  1  0  0  0  0
  6 25  1  0  0  0  0
  7 21  1  0  0  0  0
  7 22  2  0  0  0  0
  7 24  1  0  0  0  0
  8 10  1  0  0  0  0
  8 15  1  0  0  0  0
  9 11  1  0  0  0  0
  9 15  1  0  0  0  0
 10 16  1  0  0  0  0
 11 16  1  0  0  0  0
 12 13  1  0  0  0  0
 12 16  1  0  0  0  0
 13 21  1  0  0  0  0
 14 16  1  0  0  0  0
 14 21  1  0  0  0  0
 15 23  1  0  0  0  0
 17 20  1  0  0  0  0
 18 20  1  0  0  0  0
 19 20  1  0  0  0  0
 20 24  1  0  0  0  0
  1 26  1  0  0  0  0
  2 27  1  0  0  0  0
  3 28  1  0  0  0  0
  4 29  1  0  0  0  0
  8 30  1  0  0  0  0
  8 31  1  0  0  0  0
  9 32  1  0  0  0  0
  9 33  1  0  0  0  0
 10 34  1  0  0  0  0
 10 35  1  0  0  0  0
 11 36  1  0  0  0  0
 11 37  1  0  0  0  0
 12 38  1  0  0  0  0
 12 39  1  0  0  0  0
 13 40  1  0  0  0  0
 13 41  1  0  0  0  0
 14 42  1  0  0  0  0
 14 43  1  0  0  0  0
 17 44  1  0  0  0  0
 17 45  1  0  0  0  0
 17 46  1  0  0  0  0
 18 47  1  0  0  0  0
 18 48  1  0  0  0  0
 18 49  1  0  0  0  0
 19 50  1  0  0  0  0
 19 51  1  0  0  0  0
 19 52  1  0  0  0  0
 23 53  1  0  0  0  0
M  END
> <id>
EN300-7428872

> <smiles>
CC(C)(C)OC(=O)N1CCC2(C1)CCC(O)(CC2)C=3C=CC=C(Br)C3

> <IUPAC Name>
tert-butyl 8-(3-bromophenyl)-8-hydroxy-2-azaspiro[4.5]decane-2-carboxylate

> <CAS>
2309449-22-5

> <URL>
https://www.enaminestore.com/catalog/EN300-7428872

> <ROCS_ShapeQuery>
_x0404_0B

> <ROCS_TanimotoCombo>
0.428 

> <ROCS_ShapeTanimoto>
0.373 

> <ROCS_ColorTanimoto>
0.055 

> <ROCS_RefTversky>
0.328 

> <ROCS_RefColorTversky>
0.061 

> <ROCS_RefTverskyCombo>
0.389 

> <ROCS_FitTversky>
1.574 

> <ROCS_FitColorTversky>
0.384 

> <ROCS_FitTverskyCombo>
1.958 

> <ROCS_ColorScore>
-4.372

> <ROCS_Overlap>
2193.928

> <ROCS_Rank>
478                 

$$$$
untitled-dbase-49318_543
  -OEChem-08222312023D

 42 44  0     0  0  0  0  0  0999 V2000
   -7.2726    5.1813  -16.5147 C   0  0  0  0  0  0  0  0  0  0  0  0
   -9.4860    4.2218  -16.6464 C   0  0  0  0  0  0  0  0  0  0  0  0
   -7.2494    5.3184  -17.9026 C   0  0  0  0  0  0  0  0  0  0  0  0
   -9.4628    4.3589  -18.0344 C   0  0  0  0  0  0  0  0  0  0  0  0
   -8.3909    4.6329  -15.8866 C   0  0  0  0  0  0  0  0  0  0  0  0
   -8.3445    4.9073  -18.6624 C   0  0  0  0  0  0  0  0  0  0  0  0
   -8.4156    4.4908  -14.4318 C   0  0  0  0  0  0  0  0  0  0  0  0
   -8.8508    5.3675  -13.5162 C   0  0  0  0  0  0  0  0  0  0  0  0
   -7.9594    3.2821  -13.6929 C   0  0  0  0  0  0  0  0  0  0  0  0
   -9.2634    5.5213   -8.8803 C   0  0  0  0  0  0  0  0  0  0  0  0
   -9.9454    4.8750  -11.2568 C   0  0  0  0  0  0  0  0  0  0  0  0
   -7.9697    5.7015  -11.1383 C   0  0  0  0  0  0  0  0  0  0  0  0
   -8.7022    4.8136  -12.1637 C   0  0  0  0  0  0  0  0  0  0  0  0
   -9.0941    4.6196   -6.0932 C   0  0  0  0  0  0  0  0  0  0  0  0
  -10.5773    2.7346   -6.8390 C   0  0  0  0  0  0  0  0  0  0  0  0
   -8.2717    2.9701   -7.8070 C   0  0  0  0  0  0  0  0  0  0  0  0
   -9.4878    3.7176   -7.2620 C   0  0  0  0  0  0  0  0  0  0  0  0
   -9.0854    5.4633  -10.2423 N   0  0  0  0  0  0  0  0  0  0  0  0
   -7.4917    2.2717  -14.1890 O   0  0  0  0  0  0  0  0  0  0  0  0
   -8.8203    6.4364   -8.1866 O   0  0  0  0  0  0  0  0  0  0  0  0
   -8.1405    3.4950  -12.3540 O   0  0  0  0  0  0  0  0  0  0  0  0
   -9.3964    6.6034  -13.7014 O   0  0  0  0  0  0  0  0  0  0  0  0
  -10.0283    4.5377   -8.3104 O   0  0  0  0  0  0  0  0  0  0  0  0
   -8.3133    5.0933  -20.5432 Br  0  0  0  0  0  0  0  0  0  0  0  0
   -6.4121    5.5067  -15.9352 H   0  0  0  0  0  0  0  0  0  0  0  0
  -10.3646    3.7930  -16.1703 H   0  0  0  0  0  0  0  0  0  0  0  0
   -6.3699    5.7473  -18.3761 H   0  0  0  0  0  0  0  0  0  0  0  0
  -10.3245    4.0332  -18.6115 H   0  0  0  0  0  0  0  0  0  0  0  0
  -10.7560    5.5416  -11.5620 H   0  0  0  0  0  0  0  0  0  0  0  0
  -10.3556    3.9071  -10.9576 H   0  0  0  0  0  0  0  0  0  0  0  0
   -7.0248    5.2980  -10.7635 H   0  0  0  0  0  0  0  0  0  0  0  0
   -7.8452    6.7582  -11.3908 H   0  0  0  0  0  0  0  0  0  0  0  0
   -8.3123    5.3267   -6.3928 H   0  0  0  0  0  0  0  0  0  0  0  0
   -9.9507    5.1876   -5.7157 H   0  0  0  0  0  0  0  0  0  0  0  0
   -8.6784    4.0307   -5.2676 H   0  0  0  0  0  0  0  0  0  0  0  0
  -10.8628    2.0854   -7.6746 H   0  0  0  0  0  0  0  0  0  0  0  0
  -11.4867    3.2662   -6.5364 H   0  0  0  0  0  0  0  0  0  0  0  0
  -10.2509    2.1039   -6.0058 H   0  0  0  0  0  0  0  0  0  0  0  0
   -8.5539    2.3230   -8.6455 H   0  0  0  0  0  0  0  0  0  0  0  0
   -7.4942    3.6605   -8.1498 H   0  0  0  0  0  0  0  0  0  0  0  0
   -7.8421    2.3142   -7.0412 H   0  0  0  0  0  0  0  0  0  0  0  0
   -9.4483    6.8160  -14.6440 H   0  0  0  0  0  0  0  0  0  0  0  0
  1  3  1  0  0  0  0
  1  5  2  0  0  0  0
  2  4  2  0  0  0  0
  2  5  1  0  0  0  0
  3  6  2  0  0  0  0
  4  6  1  0  0  0  0
  5  7  1  0  0  0  0
  6 24  1  0  0  0  0
  7  8  2  0  0  0  0
  7  9  1  0  0  0  0
  8 13  1  0  0  0  0
  8 22  1  0  0  0  0
  9 19  2  0  0  0  0
  9 21  1  0  0  0  0
 10 18  1  0  0  0  0
 10 20  2  0  0  0  0
 10 23  1  0  0  0  0
 11 13  1  0  0  0  0
 11 18  1  0  0  0  0
 12 13  1  0  0  0  0
 12 18  1  0  0  0  0
 13 21  1  0  0  0  0
 14 17  1  0  0  0  0
 15 17  1  0  0  0  0
 16 17  1  0  0  0  0
 17 23  1  0  0  0  0
  1 25  1  0  0  0  0
  2 26  1  0  0  0  0
  3 27  1  0  0  0  0
  4 28  1  0  0  0  0
 11 29  1  0  0  0  0
 11 30  1  0  0  0  0
 12 31  1  0  0  0  0
 12 32  1  0  0  0  0
 14 33  1  0  0  0  0
 14 34  1  0  0  0  0
 14 35  1  0  0  0  0
 15 36  1  0  0  0  0
 15 37  1  0  0  0  0
 15 38  1  0  0  0  0
 16 39  1  0  0  0  0
 16 40  1  0  0  0  0
 16 41  1  0  0  0  0
 22 42  1  0  0  0  0
M  END
> <id>
EN300-1647734

> <smiles>
CC(C)(C)OC(=O)N1CC2(C1)OC(=O)C(=C2O)C=3C=CC(Br)=CC3

> <IUPAC Name>
tert-butyl 7-(4-bromophenyl)-8-hydroxy-6-oxo-5-oxa-2-azaspiro[3.4]oct-7-ene-2-carboxylate

> <CAS>
2171979-14-7

> <URL>
https://www.enaminestore.com/catalog/EN300-1647734

> <ROCS_ShapeQuery>
_x0404_0B

> <ROCS_TanimotoCombo>
0.428 

> <ROCS_ShapeTanimoto>
0.352 

> <ROCS_ColorTanimoto>
0.076 

> <ROCS_RefTversky>
0.314 

> <ROCS_RefColorTversky>
0.082 

> <ROCS_RefTverskyCombo>
0.396 

> <ROCS_FitTversky>
1.521 

> <ROCS_FitColorTversky>
0.519 

> <ROCS_FitTverskyCombo>
2.039 

> <ROCS_ColorScore>
-5.909

> <ROCS_Overlap>
2099.603

> <ROCS_Rank>
479                 

$$$$
untitled-dbase-100214_3
  -OEChem-08222312023D

 35 36  0     0  0  0  0  0  0999 V2000
   -8.9506    6.7838  -11.1093 C   0  0  0  0  0  0  0  0  0  0  0  0
   -8.9867    6.4123  -12.4531 C   0  0  0  0  0  0  0  0  0  0  0  0
   -9.0170    4.0822  -11.8117 C   0  0  0  0  0  0  0  0  0  0  0  0
   -8.9771    3.4772   -9.4360 C   0  0  0  0  0  0  0  0  0  0  0  0
   -8.9121    6.1191   -8.7431 C   0  0  0  0  0  0  0  0  0  0  0  0
   -8.9474    5.8037  -10.1029 C   0  0  0  0  0  0  0  0  0  0  0  0
   -8.9809    4.4382  -10.4536 C   0  0  0  0  0  0  0  0  0  0  0  0
   -9.0198    5.0646  -12.8035 C   0  0  0  0  0  0  0  0  0  0  0  0
   -8.9404    3.9090   -8.1189 C   0  0  0  0  0  0  0  0  0  0  0  0
   -8.5220    5.3645  -15.2475 C   0  0  0  0  0  0  0  0  0  0  0  0
   -6.7792    5.3373  -17.5149 C   0  0  0  0  0  0  0  0  0  0  0  0
   -8.6907    4.2621  -18.7393 C   0  0  0  0  0  0  0  0  0  0  0  0
   -8.9480    6.5803  -17.8078 C   0  0  0  0  0  0  0  0  0  0  0  0
   -8.2991    5.2113  -17.6089 C   0  0  0  0  0  0  0  0  0  0  0  0
   -8.9079    5.2061   -7.7458 N   0  0  0  0  0  0  0  0  0  0  0  0
   -9.0556    4.6957  -14.1487 N   0  0  0  0  0  0  0  0  0  0  0  0
   -7.9084    6.4247  -15.2418 O   0  0  0  0  0  0  0  0  0  0  0  0
   -8.9360    2.9751   -7.1157 O   0  0  0  0  0  0  0  0  0  0  0  0
   -8.7864    4.6491  -16.3850 O   0  0  0  0  0  0  0  0  0  0  0  0
   -8.9252    7.8404  -10.8529 H   0  0  0  0  0  0  0  0  0  0  0  0
   -8.9884    7.1840  -13.2188 H   0  0  0  0  0  0  0  0  0  0  0  0
   -9.0436    3.0316  -12.0971 H   0  0  0  0  0  0  0  0  0  0  0  0
   -9.0027    2.4156   -9.6654 H   0  0  0  0  0  0  0  0  0  0  0  0
   -8.8851    7.1513   -8.4046 H   0  0  0  0  0  0  0  0  0  0  0  0
   -6.4940    6.0179  -16.7047 H   0  0  0  0  0  0  0  0  0  0  0  0
   -6.3042    4.3669  -17.3374 H   0  0  0  0  0  0  0  0  0  0  0  0
   -6.3643    5.7624  -18.4360 H   0  0  0  0  0  0  0  0  0  0  0  0
   -9.7804    4.1687  -18.8104 H   0  0  0  0  0  0  0  0  0  0  0  0
   -8.3060    3.2530  -18.5525 H   0  0  0  0  0  0  0  0  0  0  0  0
   -8.3084    4.6055  -19.7060 H   0  0  0  0  0  0  0  0  0  0  0  0
  -10.0382    6.4903  -17.8752 H   0  0  0  0  0  0  0  0  0  0  0  0
   -8.7078    7.2636  -16.9867 H   0  0  0  0  0  0  0  0  0  0  0  0
   -8.6166    7.0358  -18.7480 H   0  0  0  0  0  0  0  0  0  0  0  0
   -9.5389    3.8155  -14.3557 H   0  0  0  0  0  0  0  0  0  0  0  0
   -8.9091    3.4185   -6.2566 H   0  0  0  0  0  0  0  0  0  0  0  0
  1  2  1  0  0  0  0
  1  6  2  0  0  0  0
  2  8  2  0  0  0  0
  3  7  2  0  0  0  0
  3  8  1  0  0  0  0
  4  7  1  0  0  0  0
  4  9  2  0  0  0  0
  5  6  1  0  0  0  0
  5 15  2  0  0  0  0
  6  7  1  0  0  0  0
  8 16  1  0  0  0  0
  9 15  1  0  0  0  0
  9 18  1  0  0  0  0
 10 16  1  0  0  0  0
 10 17  2  0  0  0  0
 10 19  1  0  0  0  0
 11 14  1  0  0  0  0
 12 14  1  0  0  0  0
 13 14  1  0  0  0  0
 14 19  1  0  0  0  0
  1 20  1  0  0  0  0
  2 21  1  0  0  0  0
  3 22  1  0  0  0  0
  4 23  1  0  0  0  0
  5 24  1  0  0  0  0
 11 25  1  0  0  0  0
 11 26  1  0  0  0  0
 11 27  1  0  0  0  0
 12 28  1  0  0  0  0
 12 29  1  0  0  0  0
 12 30  1  0  0  0  0
 13 31  1  0  0  0  0
 13 32  1  0  0  0  0
 13 33  1  0  0  0  0
 16 34  1  0  0  0  0
 18 35  1  0  0  0  0
M  END
> <id>
EN300-37100315

> <smiles>
CC(C)(C)OC(=O)NC=1C=CC=2C=NC(O)=CC2C1

> <IUPAC Name>
tert-butyl N-(3-hydroxyisoquinolin-6-yl)carbamate

> <CAS>
2757925-59-8

> <URL>
https://www.enaminestore.com/catalog/EN300-37100315

> <ROCS_ShapeQuery>
_x0404_0B

> <ROCS_TanimotoCombo>
0.428 

> <ROCS_ShapeTanimoto>
0.346 

> <ROCS_ColorTanimoto>
0.082 

> <ROCS_RefTversky>
0.302 

> <ROCS_RefColorTversky>
0.088 

> <ROCS_RefTverskyCombo>
0.390 

> <ROCS_FitTversky>
1.727 

> <ROCS_FitColorTversky>
0.556 

> <ROCS_FitTverskyCombo>
2.283 

> <ROCS_ColorScore>
-6.340

> <ROCS_Overlap>
2015.095

> <ROCS_Rank>
480                 

$$$$
untitled-dbase-88449_7
  -OEChem-08222312023D

 51 53  0     1  0  0  0  0  0999 V2000
   -8.4658    5.6534  -14.3209 C   0  0  0  0  0  0  0  0  0  0  0  0
   -8.1906    3.8863   -7.0571 C   0  0  0  0  0  0  0  0  0  0  0  0
  -10.3697    4.1744   -8.1588 C   0  0  0  0  0  0  0  0  0  0  0  0
   -8.9768    6.3453  -10.7381 C   0  0  0  0  0  0  0  0  0  0  0  0
   -8.3849    2.3720   -7.2449 C   0  0  0  0  0  0  0  0  0  0  0  0
  -10.4349    2.6713   -8.4717 C   0  0  0  0  0  0  0  0  0  0  0  0
   -9.2341    6.7048  -12.1961 C   0  0  0  0  0  0  0  0  0  0  0  0
   -8.3158    2.6433   -9.6332 C   0  0  0  0  0  0  0  0  0  0  0  0
   -8.3464    4.4638  -12.0904 C   0  0  0  0  0  0  0  0  0  0  0  0
   -8.8992    4.6339   -8.2075 C   0  0  0  0  0  0  0  0  0  0  0  0
   -8.2657    4.1958   -9.5611 C   0  0  2  0  0  0  0  0  0  0  0  0
   -8.9887    4.8124  -10.7480 C   0  0  1  0  0  0  0  0  0  0  0  0
   -6.9638    4.8949  -16.6310 C   0  0  0  0  0  0  0  0  0  0  0  0
   -8.5113    2.9207  -16.7618 C   0  0  0  0  0  0  0  0  0  0  0  0
   -9.4304    5.2472  -16.9869 C   0  0  0  0  0  0  0  0  0  0  0  0
   -8.3669    4.3755  -16.3205 C   0  0  0  0  0  0  0  0  0  0  0  0
   -8.6683    5.5994  -12.9522 N   0  0  0  0  0  0  0  0  0  0  0  0
   -9.0891    2.0604   -8.5089 N   0  0  0  0  0  0  0  0  0  0  0  0
   -6.8713    4.6471   -9.6782 N   0  0  0  0  0  0  0  0  0  0  0  0
   -8.2227    6.6853  -14.9426 O   0  0  0  0  0  0  0  0  0  0  0  0
  -10.3381    4.3461  -10.7591 O   0  0  0  0  0  0  0  0  0  0  0  0
   -8.5653    4.4181  -14.9029 O   0  0  0  0  0  0  0  0  0  0  0  0
   -8.6190    4.1936   -6.0949 H   0  0  0  0  0  0  0  0  0  0  0  0
   -7.1251    4.1347   -7.0144 H   0  0  0  0  0  0  0  0  0  0  0  0
  -10.9881    4.7399   -8.8637 H   0  0  0  0  0  0  0  0  0  0  0  0
  -10.7854    4.3650   -7.1612 H   0  0  0  0  0  0  0  0  0  0  0  0
   -7.9966    6.7332  -10.4308 H   0  0  0  0  0  0  0  0  0  0  0  0
   -9.7465    6.7705  -10.0836 H   0  0  0  0  0  0  0  0  0  0  0  0
   -7.4114    1.8671   -7.2282 H   0  0  0  0  0  0  0  0  0  0  0  0
   -8.9452    1.9568   -6.3976 H   0  0  0  0  0  0  0  0  0  0  0  0
  -11.0514    2.1630   -7.7200 H   0  0  0  0  0  0  0  0  0  0  0  0
  -10.9435    2.5050   -9.4297 H   0  0  0  0  0  0  0  0  0  0  0  0
  -10.3059    6.7464  -12.4185 H   0  0  0  0  0  0  0  0  0  0  0  0
   -8.7771    7.6537  -12.4922 H   0  0  0  0  0  0  0  0  0  0  0  0
   -8.7568    2.3083  -10.5812 H   0  0  0  0  0  0  0  0  0  0  0  0
   -7.3088    2.2039   -9.6248 H   0  0  0  0  0  0  0  0  0  0  0  0
   -7.2528    4.4014  -12.0363 H   0  0  0  0  0  0  0  0  0  0  0  0
   -8.7393    3.5420  -12.5344 H   0  0  0  0  0  0  0  0  0  0  0  0
   -8.8318    5.7177   -8.0591 H   0  0  0  0  0  0  0  0  0  0  0  0
   -6.8562    5.9389  -16.3157 H   0  0  0  0  0  0  0  0  0  0  0  0
   -6.1934    4.2993  -16.1305 H   0  0  0  0  0  0  0  0  0  0  0  0
   -6.7697    4.8761  -17.7095 H   0  0  0  0  0  0  0  0  0  0  0  0
   -9.5166    2.5439  -16.5410 H   0  0  0  0  0  0  0  0  0  0  0  0
   -7.8132    2.2760  -16.2156 H   0  0  0  0  0  0  0  0  0  0  0  0
   -8.3250    2.8034  -17.8342 H   0  0  0  0  0  0  0  0  0  0  0  0
  -10.4369    4.8749  -16.7643 H   0  0  0  0  0  0  0  0  0  0  0  0
   -9.3654    6.2881  -16.6537 H   0  0  0  0  0  0  0  0  0  0  0  0
   -9.3261    5.2236  -18.0777 H   0  0  0  0  0  0  0  0  0  0  0  0
   -6.3629    4.2507   -8.9276 H   0  0  0  0  0  0  0  0  0  0  0  0
   -6.5261    4.3320  -10.5503 H   0  0  0  0  0  0  0  0  0  0  0  0
  -10.7499    4.6990  -11.5644 H   0  0  0  0  0  0  0  0  0  0  0  0
  1 17  1  0  0  0  0
  1 20  2  0  0  0  0
  1 22  1  0  0  0  0
  2  5  1  0  0  0  0
  2 10  1  0  0  0  0
  3  6  1  0  0  0  0
  3 10  1  0  0  0  0
  4  7  1  0  0  0  0
  4 12  1  0  0  0  0
  5 18  1  0  0  0  0
  6 18  1  0  0  0  0
  7 17  1  0  0  0  0
  8 11  1  0  0  0  0
  8 18  1  0  0  0  0
  9 12  1  0  0  0  0
  9 17  1  0  0  0  0
 10 11  1  0  0  0  0
 11 12  1  0  0  0  0
 11 19  1  0  0  0  0
 12 21  1  0  0  0  0
 13 16  1  0  0  0  0
 14 16  1  0  0  0  0
 15 16  1  0  0  0  0
 16 22  1  0  0  0  0
  2 23  1  0  0  0  0
  2 24  1  0  0  0  0
  3 25  1  0  0  0  0
  3 26  1  0  0  0  0
  4 27  1  0  0  0  0
  4 28  1  0  0  0  0
  5 29  1  0  0  0  0
  5 30  1  0  0  0  0
  6 31  1  0  0  0  0
  6 32  1  0  0  0  0
  7 33  1  0  0  0  0
  7 34  1  0  0  0  0
  8 35  1  0  0  0  0
  8 36  1  0  0  0  0
  9 37  1  0  0  0  0
  9 38  1  0  0  0  0
 10 39  1  0  0  0  0
 13 40  1  0  0  0  0
 13 41  1  0  0  0  0
 13 42  1  0  0  0  0
 14 43  1  0  0  0  0
 14 44  1  0  0  0  0
 14 45  1  0  0  0  0
 15 46  1  0  0  0  0
 15 47  1  0  0  0  0
 15 48  1  0  0  0  0
 19 49  1  0  0  0  0
 19 50  1  0  0  0  0
 21 51  1  0  0  0  0
M  END
> <id>
EN300-1642001

> <smiles>
CC(C)(C)OC(=O)N1CCC(O)(C1)C2(N)CN3CCC2CC3

> <IUPAC Name>
tert-butyl 3-{3-amino-1-azabicyclo[2.2.2]octan-3-yl}-3-hydroxypyrrolidine-1-carboxylate

> <CAS>
2171757-86-9

> <URL>
https://www.enaminestore.com/catalog/EN300-1642001

> <ROCS_ShapeQuery>
_x0404_0B

> <ROCS_TanimotoCombo>
0.428 

> <ROCS_ShapeTanimoto>
0.324 

> <ROCS_ColorTanimoto>
0.104 

> <ROCS_RefTversky>
0.292 

> <ROCS_RefColorTversky>
0.116 

> <ROCS_RefTverskyCombo>
0.409 

> <ROCS_FitTversky>
1.508 

> <ROCS_FitColorTversky>
0.493 

> <ROCS_FitTverskyCombo>
2.000 

> <ROCS_ColorScore>
-8.446

> <ROCS_Overlap>
1951.327

> <ROCS_Rank>
481                 

$$$$
untitled-dbase-145173_371
  -OEChem-08222312023D

 42 44  0     1  0  0  0  0  0999 V2000
   -7.3607    2.0974  -10.8067 C   0  0  0  0  0  0  0  0  0  0  0  0
   -8.8955    2.6632   -9.0802 C   0  0  0  0  0  0  0  0  0  0  0  0
   -8.0230    0.5386   -9.1370 C   0  0  0  0  0  0  0  0  0  0  0  0
   -8.1855    3.0430  -10.2077 C   0  0  0  0  0  0  0  0  0  0  0  0
   -7.2723    0.8189  -10.2674 C   0  0  0  0  0  0  0  0  0  0  0  0
   -8.8563    5.7831  -14.3430 C   0  0  0  0  0  0  0  0  0  0  0  0
   -8.9171    6.5471  -10.8183 C   0  0  0  0  0  0  0  0  0  0  0  0
   -7.2228    5.0219  -11.4415 C   0  0  0  0  0  0  0  0  0  0  0  0
  -10.0513    5.0193  -12.2306 C   0  0  0  0  0  0  0  0  0  0  0  0
   -8.0094    6.2264  -12.0057 C   0  0  1  0  0  0  0  0  0  0  0  0
   -9.5199    5.1278  -10.7909 C   0  0  1  0  0  0  0  0  0  0  0  0
   -7.3249    3.9971  -15.9646 C   0  0  0  0  0  0  0  0  0  0  0  0
   -9.5382    3.0998  -16.7428 C   0  0  0  0  0  0  0  0  0  0  0  0
   -8.9326    5.4958  -17.1910 C   0  0  0  0  0  0  0  0  0  0  0  0
   -8.7955    4.3263  -16.2171 C   0  0  0  0  0  0  0  0  0  0  0  0
   -8.8353    1.4309   -8.5274 N   0  0  0  0  0  0  0  0  0  0  0  0
   -8.2927    4.3124  -10.7176 N   0  0  3  0  0  0  0  0  0  0  0  0
   -8.9817    5.6955  -12.9731 N   0  0  0  0  0  0  0  0  0  0  0  0
   -8.3228    6.7209  -14.9305 O   0  0  0  0  0  0  0  0  0  0  0  0
   -6.4763   -0.1237  -10.8300 O   0  0  0  0  0  0  0  0  0  0  0  0
   -9.3999    4.6960  -14.9727 O   0  0  0  0  0  0  0  0  0  0  0  0
   -6.7853    2.3522  -11.6933 H   0  0  0  0  0  0  0  0  0  0  0  0
   -9.5557    3.3573   -8.5688 H   0  0  0  0  0  0  0  0  0  0  0  0
   -7.9928   -0.4425   -8.6736 H   0  0  0  0  0  0  0  0  0  0  0  0
   -8.3714    6.7999   -9.9028 H   0  0  0  0  0  0  0  0  0  0  0  0
   -9.6551    7.3266  -11.0363 H   0  0  0  0  0  0  0  0  0  0  0  0
   -6.7774    4.4183  -12.2405 H   0  0  0  0  0  0  0  0  0  0  0  0
   -6.4431    5.3394  -10.7409 H   0  0  0  0  0  0  0  0  0  0  0  0
  -10.1901    3.9962  -12.5923 H   0  0  0  0  0  0  0  0  0  0  0  0
  -10.9777    5.5856  -12.3743 H   0  0  0  0  0  0  0  0  0  0  0  0
   -7.3953    7.0374  -12.4004 H   0  0  0  0  0  0  0  0  0  0  0  0
  -10.2449    4.9386   -9.9963 H   0  0  0  0  0  0  0  0  0  0  0  0
   -6.7884    4.8750  -15.5871 H   0  0  0  0  0  0  0  0  0  0  0  0
   -7.2123    3.1831  -15.2411 H   0  0  0  0  0  0  0  0  0  0  0  0
   -6.8243    3.7052  -16.8948 H   0  0  0  0  0  0  0  0  0  0  0  0
  -10.5937    3.3314  -16.9254 H   0  0  0  0  0  0  0  0  0  0  0  0
   -9.5232    2.2888  -16.0057 H   0  0  0  0  0  0  0  0  0  0  0  0
   -9.0983    2.7297  -17.6745 H   0  0  0  0  0  0  0  0  0  0  0  0
   -9.9874    5.7321  -17.3723 H   0  0  0  0  0  0  0  0  0  0  0  0
   -8.4369    6.3957  -16.8129 H   0  0  0  0  0  0  0  0  0  0  0  0
   -8.5002    5.2436  -18.1660 H   0  0  0  0  0  0  0  0  0  0  0  0
   -6.0219    0.2351  -11.6111 H   0  0  0  0  0  0  0  0  0  0  0  0
  1  4  1  0  0  0  0
  1  5  2  0  0  0  0
  2  4  2  0  0  0  0
  2 16  1  0  0  0  0
  3  5  1  0  0  0  0
  3 16  2  0  0  0  0
  4 17  1  0  0  0  0
  5 20  1  0  0  0  0
  6 18  1  0  0  0  0
  6 19  2  0  0  0  0
  6 21  1  0  0  0  0
  7 10  1  0  0  0  0
  7 11  1  0  0  0  0
  8 10  1  6  0  0  0
  8 17  1  0  0  0  0
  9 11  1  6  0  0  0
  9 18  1  0  0  0  0
 10 18  1  0  0  0  0
 11 17  1  0  0  0  0
 12 15  1  0  0  0  0
 13 15  1  0  0  0  0
 14 15  1  0  0  0  0
 15 21  1  0  0  0  0
  1 22  1  0  0  0  0
  2 23  1  0  0  0  0
  3 24  1  0  0  0  0
  7 25  1  0  0  0  0
  7 26  1  0  0  0  0
  8 27  1  0  0  0  0
  8 28  1  0  0  0  0
  9 29  1  0  0  0  0
  9 30  1  0  0  0  0
 10 31  1  0  0  0  0
 11 32  1  0  0  0  0
 12 33  1  0  0  0  0
 12 34  1  0  0  0  0
 12 35  1  0  0  0  0
 13 36  1  0  0  0  0
 13 37  1  0  0  0  0
 13 38  1  0  0  0  0
 14 39  1  0  0  0  0
 14 40  1  0  0  0  0
 14 41  1  0  0  0  0
 20 42  1  0  0  0  0
M  END
> <id>
EN300-6478947

> <smiles>
CC(C)(C)OC(=O)N1C[C@@H]2C[C@H]1CN2C=3C=NC=C(O)C3

> <IUPAC Name>
tert-butyl (1S,4S)-5-(5-hydroxypyridin-3-yl)-2,5-diazabicyclo[2.2.1]heptane-2-carboxylate

> <CAS>
286946-46-1

> <URL>
https://www.enaminestore.com/catalog/EN300-6478947

> <ROCS_ShapeQuery>
_x0404_0B

> <ROCS_TanimotoCombo>
0.428 

> <ROCS_ShapeTanimoto>
0.262 

> <ROCS_ColorTanimoto>
0.166 

> <ROCS_RefTversky>
0.247 

> <ROCS_RefColorTversky>
0.173 

> <ROCS_RefTverskyCombo>
0.420 

> <ROCS_FitTversky>
1.302 

> <ROCS_FitColorTversky>
0.805 

> <ROCS_FitTverskyCombo>
2.107 

> <ROCS_ColorScore>
-12.530

> <ROCS_Overlap>
1649.481

> <ROCS_Rank>
482                 

$$$$
untitled-dbase-104684_9
  -OEChem-08222312023D

 36 37  0     0  0  0  0  0  0999 V2000
   -8.5689    6.4467  -10.9898 C   0  0  0  0  0  0  0  0  0  0  0  0
   -8.7391    5.5284   -8.7248 C   0  0  0  0  0  0  0  0  0  0  0  0
   -8.5940    6.2629  -12.3725 C   0  0  0  0  0  0  0  0  0  0  0  0
   -8.9321    4.4392   -7.8746 C   0  0  0  0  0  0  0  0  0  0  0  0
   -9.0041    3.9055  -12.0529 C   0  0  0  0  0  0  0  0  0  0  0  0
   -9.1745    2.9871   -9.7879 C   0  0  0  0  0  0  0  0  0  0  0  0
   -8.7612    5.3617  -10.1191 C   0  0  0  0  0  0  0  0  0  0  0  0
   -8.9821    4.0721  -10.6586 C   0  0  0  0  0  0  0  0  0  0  0  0
   -8.8112    4.9948  -12.9031 C   0  0  0  0  0  0  0  0  0  0  0  0
   -9.1494    3.1710   -8.4051 C   0  0  0  0  0  0  0  0  0  0  0  0
   -8.6663    5.7623  -15.2907 C   0  0  0  0  0  0  0  0  0  0  0  0
   -6.3690    5.3298  -16.4780 C   0  0  0  0  0  0  0  0  0  0  0  0
   -7.5765    3.9907  -18.2268 C   0  0  0  0  0  0  0  0  0  0  0  0
   -7.7518    6.4962  -18.2279 C   0  0  0  0  0  0  0  0  0  0  0  0
   -7.6147    5.2468  -17.3590 C   0  0  0  0  0  0  0  0  0  0  0  0
   -8.8359    4.8127  -14.2862 N   0  0  0  0  0  0  0  0  0  0  0  0
   -8.4599    6.9612  -15.1481 O   0  0  0  0  0  0  0  0  0  0  0  0
   -9.3373    2.1090   -7.5746 O   0  0  0  0  0  0  0  0  0  0  0  0
   -8.7661    5.1515  -16.5124 O   0  0  0  0  0  0  0  0  0  0  0  0
   -8.3981    7.4469  -10.5970 H   0  0  0  0  0  0  0  0  0  0  0  0
   -8.5710    6.5107   -8.2881 H   0  0  0  0  0  0  0  0  0  0  0  0
   -8.4419    7.1183  -13.0260 H   0  0  0  0  0  0  0  0  0  0  0  0
   -8.9113    4.5881   -6.7983 H   0  0  0  0  0  0  0  0  0  0  0  0
   -9.1731    2.9177  -12.4790 H   0  0  0  0  0  0  0  0  0  0  0  0
   -9.3456    1.9887  -10.1867 H   0  0  0  0  0  0  0  0  0  0  0  0
   -6.3926    6.2300  -15.8536 H   0  0  0  0  0  0  0  0  0  0  0  0
   -6.2779    4.4558  -15.8249 H   0  0  0  0  0  0  0  0  0  0  0  0
   -5.4619    5.4012  -17.0891 H   0  0  0  0  0  0  0  0  0  0  0  0
   -8.4684    3.9271  -18.8606 H   0  0  0  0  0  0  0  0  0  0  0  0
   -7.5738    3.0874  -17.6061 H   0  0  0  0  0  0  0  0  0  0  0  0
   -6.6914    3.9714  -18.8709 H   0  0  0  0  0  0  0  0  0  0  0  0
   -8.6452    6.4369  -18.8599 H   0  0  0  0  0  0  0  0  0  0  0  0
   -7.8178    7.4046  -17.6204 H   0  0  0  0  0  0  0  0  0  0  0  0
   -6.8978    6.5934  -18.9080 H   0  0  0  0  0  0  0  0  0  0  0  0
   -9.0008    3.8524  -14.6054 H   0  0  0  0  0  0  0  0  0  0  0  0
   -9.2923    2.3945   -6.6482 H   0  0  0  0  0  0  0  0  0  0  0  0
  1  3  1  0  0  0  0
  1  7  2  0  0  0  0
  2  4  2  0  0  0  0
  2  7  1  0  0  0  0
  3  9  2  0  0  0  0
  4 10  1  0  0  0  0
  5  8  2  0  0  0  0
  5  9  1  0  0  0  0
  6  8  1  0  0  0  0
  6 10  2  0  0  0  0
  7  8  1  0  0  0  0
  9 16  1  0  0  0  0
 10 18  1  0  0  0  0
 11 16  1  0  0  0  0
 11 17  2  0  0  0  0
 11 19  1  0  0  0  0
 12 15  1  0  0  0  0
 13 15  1  0  0  0  0
 14 15  1  0  0  0  0
 15 19  1  0  0  0  0
  1 20  1  0  0  0  0
  2 21  1  0  0  0  0
  3 22  1  0  0  0  0
  4 23  1  0  0  0  0
  5 24  1  0  0  0  0
  6 25  1  0  0  0  0
 12 26  1  0  0  0  0
 12 27  1  0  0  0  0
 12 28  1  0  0  0  0
 13 29  1  0  0  0  0
 13 30  1  0  0  0  0
 13 31  1  0  0  0  0
 14 32  1  0  0  0  0
 14 33  1  0  0  0  0
 14 34  1  0  0  0  0
 16 35  1  0  0  0  0
 18 36  1  0  0  0  0
M  END
> <id>
EN300-26665095

> <smiles>
CC(C)(C)OC(=O)NC=1C=CC=2C=CC(O)=CC2C1

> <IUPAC Name>
tert-butyl N-(7-hydroxynaphthalen-2-yl)carbamate

> <CAS>
851773-93-8

> <URL>
https://www.enaminestore.com/catalog/EN300-26665095

> <ROCS_ShapeQuery>
_x0404_0B

> <ROCS_TanimotoCombo>
0.428 

> <ROCS_ShapeTanimoto>
0.345 

> <ROCS_ColorTanimoto>
0.084 

> <ROCS_RefTversky>
0.301 

> <ROCS_RefColorTversky>
0.088 

> <ROCS_RefTverskyCombo>
0.389 

> <ROCS_FitTversky>
1.726 

> <ROCS_FitColorTversky>
0.610 

> <ROCS_FitTverskyCombo>
2.337 

> <ROCS_ColorScore>
-6.369

> <ROCS_Overlap>
2006.938

> <ROCS_Rank>
483                 

$$$$
untitled-dbase-87288_187
  -OEChem-08222312023D

 39 41  0     0  0  0  0  0  0999 V2000
   -9.1306    2.2366   -7.8489 C   0  0  0  0  0  0  0  0  0  0  0  0
   -9.4662    3.5299   -7.3959 C   0  0  0  0  0  0  0  0  0  0  0  0
   -8.7045    2.0209   -9.1628 C   0  0  0  0  0  0  0  0  0  0  0  0
   -9.3832    4.6359   -8.2470 C   0  0  0  0  0  0  0  0  0  0  0  0
   -8.6264    3.1251   -9.9852 C   0  0  0  0  0  0  0  0  0  0  0  0
   -8.9580    4.4024   -9.5379 C   0  0  0  0  0  0  0  0  0  0  0  0
   -8.2306    3.2263  -11.3935 C   0  0  0  0  0  0  0  0  0  0  0  0
   -8.7784    5.3350  -10.6551 C   0  0  0  0  0  0  0  0  0  0  0  0
   -8.5369    5.6817  -15.0491 C   0  0  0  0  0  0  0  0  0  0  0  0
   -8.9941    5.1133  -13.7652 C   0  0  0  0  0  0  0  0  0  0  0  0
   -8.3644    5.2528  -18.6193 C   0  0  0  0  0  0  0  0  0  0  0  0
  -10.3398    3.9690  -17.7461 C   0  0  0  0  0  0  0  0  0  0  0  0
   -7.6741    5.0616  -17.2716 C   0  0  0  0  0  0  0  0  0  0  0  0
   -9.6249    3.8105  -16.4029 C   0  0  0  0  0  0  0  0  0  0  0  0
   -9.3733    4.1371  -18.9266 C   0  0  0  0  0  0  0  0  0  0  0  0
   -8.6796    2.8212  -19.2858 C   0  0  0  0  0  0  0  0  0  0  0  0
   -8.3126    4.5557  -11.6673 N   0  0  0  0  0  0  0  0  0  0  0  0
   -8.6449    4.8856  -16.1879 N   0  0  0  0  0  0  0  0  0  0  0  0
   -7.8981    2.2899  -12.0930 O   0  0  0  0  0  0  0  0  0  0  0  0
   -8.9996    6.5290  -10.6084 O   0  0  0  0  0  0  0  0  0  0  0  0
   -8.0819    6.8269  -15.0341 O   0  0  0  0  0  0  0  0  0  0  0  0
  -10.1358    4.7512  -13.5746 O   0  0  0  0  0  0  0  0  0  0  0  0
   -7.9388    5.0913  -12.9196 O   0  0  0  0  0  0  0  0  0  0  0  0
   -9.2065    1.3960   -7.1639 H   0  0  0  0  0  0  0  0  0  0  0  0
   -9.7956    3.6656   -6.3690 H   0  0  0  0  0  0  0  0  0  0  0  0
   -8.4494    1.0268   -9.5103 H   0  0  0  0  0  0  0  0  0  0  0  0
   -9.6440    5.6282   -7.8989 H   0  0  0  0  0  0  0  0  0  0  0  0
   -8.8764    6.2297  -18.6273 H   0  0  0  0  0  0  0  0  0  0  0  0
   -7.6006    5.3028  -19.4150 H   0  0  0  0  0  0  0  0  0  0  0  0
  -10.9883    3.0913  -17.9131 H   0  0  0  0  0  0  0  0  0  0  0  0
  -11.0150    4.8392  -17.6928 H   0  0  0  0  0  0  0  0  0  0  0  0
   -6.9986    4.2002  -17.3200 H   0  0  0  0  0  0  0  0  0  0  0  0
   -7.0647    5.9398  -17.0239 H   0  0  0  0  0  0  0  0  0  0  0  0
  -10.3473    3.8640  -15.5788 H   0  0  0  0  0  0  0  0  0  0  0  0
   -9.1526    2.8253  -16.3562 H   0  0  0  0  0  0  0  0  0  0  0  0
   -9.9693    4.4520  -19.8098 H   0  0  0  0  0  0  0  0  0  0  0  0
   -8.0821    2.4762  -18.4433 H   0  0  0  0  0  0  0  0  0  0  0  0
   -8.0294    2.9691  -20.1467 H   0  0  0  0  0  0  0  0  0  0  0  0
   -9.4246    2.0646  -19.5277 H   0  0  0  0  0  0  0  0  0  0  0  0
  1  2  2  0  0  0  0
  1  3  1  0  0  0  0
  2  4  1  0  0  0  0
  3  5  2  0  0  0  0
  4  6  2  0  0  0  0
  5  6  1  0  0  0  0
  5  7  1  0  0  0  0
  6  8  1  0  0  0  0
  7 17  1  0  0  0  0
  7 19  2  0  0  0  0
  8 17  1  0  0  0  0
  8 20  2  0  0  0  0
  9 10  1  0  0  0  0
  9 18  1  0  0  0  0
  9 21  2  0  0  0  0
 10 22  2  0  0  0  0
 10 23  1  0  0  0  0
 11 13  1  0  0  0  0
 11 15  1  0  0  0  0
 12 14  1  0  0  0  0
 12 15  1  0  0  0  0
 13 18  1  0  0  0  0
 14 18  1  0  0  0  0
 15 16  1  0  0  0  0
 17 23  1  0  0  0  0
  1 24  1  0  0  0  0
  2 25  1  0  0  0  0
  3 26  1  0  0  0  0
  4 27  1  0  0  0  0
 11 28  1  0  0  0  0
 11 29  1  0  0  0  0
 12 30  1  0  0  0  0
 12 31  1  0  0  0  0
 13 32  1  0  0  0  0
 13 33  1  0  0  0  0
 14 34  1  0  0  0  0
 14 35  1  0  0  0  0
 15 36  1  0  0  0  0
 16 37  1  0  0  0  0
 16 38  1  0  0  0  0
 16 39  1  0  0  0  0
M  END
> <id>
EN300-6515341

> <smiles>
CC1CCN(CC1)C(=O)C(=O)ON2C(=O)C=3C=CC=CC3C2=O

> <IUPAC Name>
1,3-dioxo-2,3-dihydro-1H-isoindol-2-yl 2-(4-methylpiperidin-1-yl)-2-oxoacetate

> <CAS>
2248397-21-7

> <URL>
https://www.enaminestore.com/catalog/EN300-6515341

> <ROCS_ShapeQuery>
_x0404_0B

> <ROCS_TanimotoCombo>
0.428 

> <ROCS_ShapeTanimoto>
0.359 

> <ROCS_ColorTanimoto>
0.069 

> <ROCS_RefTversky>
0.318 

> <ROCS_RefColorTversky>
0.074 

> <ROCS_RefTverskyCombo>
0.392 

> <ROCS_FitTversky>
1.565 

> <ROCS_FitColorTversky>
0.511 

> <ROCS_FitTverskyCombo>
2.076 

> <ROCS_ColorScore>
-5.338

> <ROCS_Overlap>
2122.468

> <ROCS_Rank>
484                 

$$$$
untitled-dbase-24565_30
  -OEChem-08222312023D

 48 50  0     0  0  0  0  0  0999 V2000
   -7.1428    5.4929  -17.7822 C   0  0  0  0  0  0  0  0  0  0  0  0
   -7.2185    6.1316  -16.5440 C   0  0  0  0  0  0  0  0  0  0  0  0
   -9.1962    4.3103  -17.3045 C   0  0  0  0  0  0  0  0  0  0  0  0
   -9.2697    4.9548  -16.0666 C   0  0  0  0  0  0  0  0  0  0  0  0
   -8.1276    4.5803  -18.1595 C   0  0  0  0  0  0  0  0  0  0  0  0
   -8.2761    5.8526  -15.6764 C   0  0  0  0  0  0  0  0  0  0  0  0
  -10.4157    4.7229  -15.1705 C   0  0  0  0  0  0  0  0  0  0  0  0
   -8.5697    5.1876   -9.2311 C   0  0  0  0  0  0  0  0  0  0  0  0
  -10.4712    5.5830  -13.9356 C   0  0  0  0  0  0  0  0  0  0  0  0
   -8.3031    4.6918  -12.8472 C   0  0  0  0  0  0  0  0  0  0  0  0
   -9.1391    6.9910  -12.3189 C   0  0  0  0  0  0  0  0  0  0  0  0
   -8.8924    4.1891  -11.5307 C   0  0  0  0  0  0  0  0  0  0  0  0
   -9.7285    6.4654  -11.0137 C   0  0  0  0  0  0  0  0  0  0  0  0
   -9.0586    5.9140  -13.4271 C   0  0  0  0  0  0  0  0  0  0  0  0
  -10.1304    3.5670   -7.8796 C   0  0  0  0  0  0  0  0  0  0  0  0
   -8.4407    1.7383   -8.2110 C   0  0  0  0  0  0  0  0  0  0  0  0
   -7.9822    3.5820   -6.5683 C   0  0  0  0  0  0  0  0  0  0  0  0
   -8.6426    3.2192   -7.8976 C   0  0  0  0  0  0  0  0  0  0  0  0
   -9.0124    5.2764  -10.5549 N   0  0  0  0  0  0  0  0  0  0  0  0
   -8.0476    3.9335  -19.4213 N   0  3  0  0  0  0  0  0  0  0  0  0
   -7.0836    4.1977  -20.1797 O   0  5  0  0  0  0  0  0  0  0  0  0
  -11.2965    3.9198  -15.4536 O   0  0  0  0  0  0  0  0  0  0  0  0
   -8.6661    6.0942   -8.4059 O   0  0  0  0  0  0  0  0  0  0  0  0
   -8.9433    3.1159  -19.7430 O   0  0  0  0  0  0  0  0  0  0  0  0
   -8.2710    6.5118  -14.4780 O   0  0  0  0  0  0  0  0  0  0  0  0
   -8.0114    3.9710   -8.9406 O   0  0  0  0  0  0  0  0  0  0  0  0
   -6.3089    5.7159  -18.4432 H   0  0  0  0  0  0  0  0  0  0  0  0
   -6.4433    6.8377  -16.2583 H   0  0  0  0  0  0  0  0  0  0  0  0
   -9.9687    3.6087  -17.6103 H   0  0  0  0  0  0  0  0  0  0  0  0
  -11.0114    6.4962  -14.2123 H   0  0  0  0  0  0  0  0  0  0  0  0
  -11.0450    5.0594  -13.1636 H   0  0  0  0  0  0  0  0  0  0  0  0
   -7.2433    4.9321  -12.6689 H   0  0  0  0  0  0  0  0  0  0  0  0
   -8.3100    3.8680  -13.5808 H   0  0  0  0  0  0  0  0  0  0  0  0
   -9.7406    7.8456  -12.6674 H   0  0  0  0  0  0  0  0  0  0  0  0
   -8.1308    7.3785  -12.1046 H   0  0  0  0  0  0  0  0  0  0  0  0
   -9.8701    3.7311  -11.7146 H   0  0  0  0  0  0  0  0  0  0  0  0
   -8.2531    3.4185  -11.0831 H   0  0  0  0  0  0  0  0  0  0  0  0
   -9.6503    7.2183  -10.2185 H   0  0  0  0  0  0  0  0  0  0  0  0
  -10.7951    6.2605  -11.1531 H   0  0  0  0  0  0  0  0  0  0  0  0
  -10.2796    4.6292   -7.6549 H   0  0  0  0  0  0  0  0  0  0  0  0
  -10.6084    3.3440   -8.8390 H   0  0  0  0  0  0  0  0  0  0  0  0
  -10.6530    3.0086   -7.0945 H   0  0  0  0  0  0  0  0  0  0  0  0
   -7.3746    1.4843   -8.2249 H   0  0  0  0  0  0  0  0  0  0  0  0
   -8.8293    1.4934   -9.2061 H   0  0  0  0  0  0  0  0  0  0  0  0
   -8.9400    1.0981   -7.4766 H   0  0  0  0  0  0  0  0  0  0  0  0
   -6.9150    3.3326   -6.5809 H   0  0  0  0  0  0  0  0  0  0  0  0
   -8.0851    4.6488   -6.3447 H   0  0  0  0  0  0  0  0  0  0  0  0
   -8.4238    3.0094   -5.7447 H   0  0  0  0  0  0  0  0  0  0  0  0
  1  2  1  0  0  0  0
  1  5  2  0  0  0  0
  2  6  2  0  0  0  0
  3  4  2  0  0  0  0
  3  5  1  0  0  0  0
  4  6  1  0  0  0  0
  4  7  1  0  0  0  0
  5 20  1  0  0  0  0
  6 25  1  0  0  0  0
  7  9  1  0  0  0  0
  7 22  2  0  0  0  0
  8 19  1  0  0  0  0
  8 23  2  0  0  0  0
  8 26  1  0  0  0  0
  9 14  1  0  0  0  0
 10 12  1  0  0  0  0
 10 14  1  0  0  0  0
 11 13  1  0  0  0  0
 11 14  1  0  0  0  0
 12 19  1  0  0  0  0
 13 19  1  0  0  0  0
 14 25  1  0  0  0  0
 15 18  1  0  0  0  0
 16 18  1  0  0  0  0
 17 18  1  0  0  0  0
 18 26  1  0  0  0  0
 20 21  1  0  0  0  0
 20 24  2  0  0  0  0
  1 27  1  0  0  0  0
  2 28  1  0  0  0  0
  3 29  1  0  0  0  0
  9 30  1  0  0  0  0
  9 31  1  0  0  0  0
 10 32  1  0  0  0  0
 10 33  1  0  0  0  0
 11 34  1  0  0  0  0
 11 35  1  0  0  0  0
 12 36  1  0  0  0  0
 12 37  1  0  0  0  0
 13 38  1  0  0  0  0
 13 39  1  0  0  0  0
 15 40  1  0  0  0  0
 15 41  1  0  0  0  0
 15 42  1  0  0  0  0
 16 43  1  0  0  0  0
 16 44  1  0  0  0  0
 16 45  1  0  0  0  0
 17 46  1  0  0  0  0
 17 47  1  0  0  0  0
 17 48  1  0  0  0  0
M  CHG  2  20   1  21  -1
M  END
> <id>
EN300-338224

> <smiles>
CC(C)(C)OC(=O)N1CCC2(CC1)CC(=O)C=3C=C(C=CC3O2)[N+](=O)[O-]

> <MDLNUMBER>
MFCD13184229

> <IUPAC Name>
tert-butyl 6-nitro-4-oxo-3,4-dihydrospiro[1-benzopyran-2,4'-piperidine]-1'-carboxylate

> <CAS>
1051383-05-1

> <URL>
https://www.enaminestore.com/catalog/EN300-338224

> <ROCS_ShapeQuery>
_x0404_0B

> <ROCS_TanimotoCombo>
0.428 

> <ROCS_ShapeTanimoto>
0.368 

> <ROCS_ColorTanimoto>
0.060 

> <ROCS_RefTversky>
0.328 

> <ROCS_RefColorTversky>
0.067 

> <ROCS_RefTverskyCombo>
0.395 

> <ROCS_FitTversky>
1.485 

> <ROCS_FitColorTversky>
0.390 

> <ROCS_FitTverskyCombo>
1.875 

> <ROCS_ColorScore>
-4.812

> <ROCS_Overlap>
2194.798

> <ROCS_Rank>
485                 

$$$$
untitled-dbase-123532_3
  -OEChem-08222312023D

 34 36  0     0  0  0  0  0  0999 V2000
   -8.7623    6.4252  -11.1938 C   0  0  0  0  0  0  0  0  0  0  0  0
   -8.5648    6.7885  -12.5263 C   0  0  0  0  0  0  0  0  0  0  0  0
   -8.2448    4.1275  -11.7375 C   0  0  0  0  0  0  0  0  0  0  0  0
   -8.0449    4.4965  -13.0705 C   0  0  0  0  0  0  0  0  0  0  0  0
   -8.6070    5.0960  -10.8013 C   0  0  0  0  0  0  0  0  0  0  0  0
   -8.2191    5.8210  -13.4716 C   0  0  0  0  0  0  0  0  0  0  0  0
   -7.6124    3.4994  -14.0648 C   0  0  0  0  0  0  0  0  0  0  0  0
   -7.2742    4.0353  -15.4308 C   0  0  0  0  0  0  0  0  0  0  0  0
   -9.6413    4.8888  -16.0127 C   0  0  0  0  0  0  0  0  0  0  0  0
   -7.6056    5.9264  -17.0649 C   0  0  0  0  0  0  0  0  0  0  0  0
   -9.8796    4.0614  -17.2741 C   0  0  0  0  0  0  0  0  0  0  0  0
   -7.8246    5.1012  -18.3301 C   0  0  0  0  0  0  0  0  0  0  0  0
   -8.1511    5.2482  -15.7850 C   0  0  0  0  0  0  0  0  0  0  0  0
   -9.2874    4.7326  -18.5005 C   0  0  0  0  0  0  0  0  0  0  0  0
   -8.8284    4.7268   -9.4480 N   0  3  0  0  0  0  0  0  0  0  0  0
   -9.1628    5.6113   -8.6233 O   0  5  0  0  0  0  0  0  0  0  0  0
   -7.4794    2.3178  -13.7694 O   0  0  0  0  0  0  0  0  0  0  0  0
   -8.6833    3.5260   -9.1140 O   0  0  0  0  0  0  0  0  0  0  0  0
   -8.0548    6.2575  -14.7573 O   0  0  0  0  0  0  0  0  0  0  0  0
   -9.9989    5.8569  -18.7779 F   0  0  0  0  0  0  0  0  0  0  0  0
   -9.4265    3.9164  -19.5747 F   0  0  0  0  0  0  0  0  0  0  0  0
   -9.0362    7.1896  -10.4706 H   0  0  0  0  0  0  0  0  0  0  0  0
   -8.6717    7.8299  -12.8185 H   0  0  0  0  0  0  0  0  0  0  0  0
   -8.1306    3.0917  -11.4264 H   0  0  0  0  0  0  0  0  0  0  0  0
   -6.2138    4.3085  -15.4531 H   0  0  0  0  0  0  0  0  0  0  0  0
   -7.4374    3.2138  -16.1386 H   0  0  0  0  0  0  0  0  0  0  0  0
  -10.2379    5.8103  -16.0937 H   0  0  0  0  0  0  0  0  0  0  0  0
  -10.0276    4.3362  -15.1422 H   0  0  0  0  0  0  0  0  0  0  0  0
   -6.5263    6.1203  -16.9465 H   0  0  0  0  0  0  0  0  0  0  0  0
   -8.0749    6.9101  -17.2220 H   0  0  0  0  0  0  0  0  0  0  0  0
   -9.4283    3.0702  -17.1475 H   0  0  0  0  0  0  0  0  0  0  0  0
  -10.9533    3.8962  -17.4258 H   0  0  0  0  0  0  0  0  0  0  0  0
   -7.4758    5.6516  -19.2114 H   0  0  0  0  0  0  0  0  0  0  0  0
   -7.2237    4.1866  -18.2746 H   0  0  0  0  0  0  0  0  0  0  0  0
  1  2  1  0  0  0  0
  1  5  2  0  0  0  0
  2  6  2  0  0  0  0
  3  4  2  0  0  0  0
  3  5  1  0  0  0  0
  4  6  1  0  0  0  0
  4  7  1  0  0  0  0
  5 15  1  0  0  0  0
  6 19  1  0  0  0  0
  7  8  1  0  0  0  0
  7 17  2  0  0  0  0
  8 13  1  0  0  0  0
  9 11  1  0  0  0  0
  9 13  1  0  0  0  0
 10 12  1  0  0  0  0
 10 13  1  0  0  0  0
 11 14  1  0  0  0  0
 12 14  1  0  0  0  0
 13 19  1  0  0  0  0
 14 20  1  0  0  0  0
 14 21  1  0  0  0  0
 15 16  1  0  0  0  0
 15 18  2  0  0  0  0
  1 22  1  0  0  0  0
  2 23  1  0  0  0  0
  3 24  1  0  0  0  0
  8 25  1  0  0  0  0
  8 26  1  0  0  0  0
  9 27  1  0  0  0  0
  9 28  1  0  0  0  0
 10 29  1  0  0  0  0
 10 30  1  0  0  0  0
 11 31  1  0  0  0  0
 11 32  1  0  0  0  0
 12 33  1  0  0  0  0
 12 34  1  0  0  0  0
M  CHG  2  15   1  16  -1
M  END
> <id>
EN300-338218

> <smiles>
[O-][N+](=O)C=1C=CC=2OC3(CCC(F)(F)CC3)CC(=O)C2C1

> <MDLNUMBER>
MFCD30499686

> <IUPAC Name>
4',4'-difluoro-6-nitro-3,4-dihydrospiro[1-benzopyran-2,1'-cyclohexan]-4-one

> <CAS>
2059970-97-5

> <URL>
https://www.enaminestore.com/catalog/EN300-338218

> <ROCS_ShapeQuery>
_x0404_0B

> <ROCS_TanimotoCombo>
0.428 

> <ROCS_ShapeTanimoto>
0.337 

> <ROCS_ColorTanimoto>
0.091 

> <ROCS_RefTversky>
0.300 

> <ROCS_RefColorTversky>
0.096 

> <ROCS_RefTverskyCombo>
0.396 

> <ROCS_FitTversky>
1.574 

> <ROCS_FitColorTversky>
0.662 

> <ROCS_FitTverskyCombo>
2.236 

> <ROCS_ColorScore>
-6.919

> <ROCS_Overlap>
2001.300

> <ROCS_Rank>
486                 

$$$$
untitled-dbase-91480_1725
  -OEChem-08222312023D

 49 51  0     0  0  0  0  0  0999 V2000
   -9.0350    2.0254   -8.4201 C   0  0  0  0  0  0  0  0  0  0  0  0
   -8.9312    2.9272   -9.4733 C   0  0  0  0  0  0  0  0  0  0  0  0
   -9.1899    3.8688   -6.9254 C   0  0  0  0  0  0  0  0  0  0  0  0
   -9.1671    2.4970   -7.1188 C   0  0  0  0  0  0  0  0  0  0  0  0
   -8.9648    4.2797   -9.1745 C   0  0  0  0  0  0  0  0  0  0  0  0
   -9.0224    4.9944  -16.5396 C   0  0  0  0  0  0  0  0  0  0  0  0
   -7.5163    5.1308  -11.0682 C   0  0  0  0  0  0  0  0  0  0  0  0
  -10.0597    5.1830  -11.2708 C   0  0  0  0  0  0  0  0  0  0  0  0
   -7.4075    6.0247  -12.3067 C   0  0  0  0  0  0  0  0  0  0  0  0
   -9.9324    6.0674  -12.5152 C   0  0  0  0  0  0  0  0  0  0  0  0
   -8.4827    6.5582  -14.5799 C   0  0  0  0  0  0  0  0  0  0  0  0
   -8.5600    4.4755  -14.0539 C   0  0  0  0  0  0  0  0  0  0  0  0
   -8.8535    5.3035  -10.3100 C   0  0  0  0  0  0  0  0  0  0  0  0
   -8.6038    5.7953  -13.2344 C   0  0  0  0  0  0  0  0  0  0  0  0
   -8.2477    4.3274  -19.2055 C   0  0  0  0  0  0  0  0  0  0  0  0
   -6.9951    6.5046  -19.1889 C   0  0  0  0  0  0  0  0  0  0  0  0
   -6.3701    4.6898  -17.5691 C   0  0  0  0  0  0  0  0  0  0  0  0
   -7.5151    5.3489  -18.3368 C   0  0  0  0  0  0  0  0  0  0  0  0
   -9.0919    4.7756   -7.9233 N   0  0  0  0  0  0  0  0  0  0  0  0
   -8.7395    5.2932  -15.2358 N   0  0  0  0  0  0  0  0  0  0  0  0
   -9.7089    4.0411  -16.8964 O   0  0  0  0  0  0  0  0  0  0  0  0
   -8.8709    6.6230   -9.7459 O   0  0  0  0  0  0  0  0  0  0  0  0
   -8.4434    5.8930  -17.3923 O   0  0  0  0  0  0  0  0  0  0  0  0
   -9.3105    1.3087   -5.6648 Br  0  0  0  0  0  0  0  0  0  0  0  0
   -9.0111    0.9590   -8.6285 H   0  0  0  0  0  0  0  0  0  0  0  0
   -8.8282    2.5716  -10.4931 H   0  0  0  0  0  0  0  0  0  0  0  0
   -9.2904    4.3010   -5.9342 H   0  0  0  0  0  0  0  0  0  0  0  0
   -7.4014    4.0852  -11.3759 H   0  0  0  0  0  0  0  0  0  0  0  0
   -6.6783    5.3643  -10.4021 H   0  0  0  0  0  0  0  0  0  0  0  0
  -10.9808    5.4652  -10.7449 H   0  0  0  0  0  0  0  0  0  0  0  0
  -10.1794    4.1381  -11.5859 H   0  0  0  0  0  0  0  0  0  0  0  0
   -7.3678    7.0754  -12.0005 H   0  0  0  0  0  0  0  0  0  0  0  0
   -6.4644    5.8116  -12.8214 H   0  0  0  0  0  0  0  0  0  0  0  0
  -10.7821    5.8719  -13.1831 H   0  0  0  0  0  0  0  0  0  0  0  0
   -9.9983    7.1268  -12.2340 H   0  0  0  0  0  0  0  0  0  0  0  0
   -9.2614    7.2981  -14.7897 H   0  0  0  0  0  0  0  0  0  0  0  0
   -7.5004    6.9799  -14.8101 H   0  0  0  0  0  0  0  0  0  0  0  0
   -7.6138    3.9284  -14.0393 H   0  0  0  0  0  0  0  0  0  0  0  0
   -9.3928    3.7826  -13.8998 H   0  0  0  0  0  0  0  0  0  0  0  0
   -8.6225    3.4963  -18.5975 H   0  0  0  0  0  0  0  0  0  0  0  0
   -9.0928    4.7800  -19.7345 H   0  0  0  0  0  0  0  0  0  0  0  0
   -7.5709    3.8875  -19.9468 H   0  0  0  0  0  0  0  0  0  0  0  0
   -6.4687    7.2399  -18.5697 H   0  0  0  0  0  0  0  0  0  0  0  0
   -7.8231    7.0401  -19.6673 H   0  0  0  0  0  0  0  0  0  0  0  0
   -6.3112    6.1554  -19.9692 H   0  0  0  0  0  0  0  0  0  0  0  0
   -5.8444    5.4222  -16.9459 H   0  0  0  0  0  0  0  0  0  0  0  0
   -6.7297    3.8817  -16.9238 H   0  0  0  0  0  0  0  0  0  0  0  0
   -5.6242    4.2787  -18.2589 H   0  0  0  0  0  0  0  0  0  0  0  0
   -9.7142    6.7130   -9.2744 H   0  0  0  0  0  0  0  0  0  0  0  0
  1  2  1  0  0  0  0
  1  4  2  0  0  0  0
  2  5  2  0  0  0  0
  3  4  1  0  0  0  0
  3 19  2  0  0  0  0
  4 24  1  0  0  0  0
  5 13  1  0  0  0  0
  5 19  1  0  0  0  0
  6 20  1  0  0  0  0
  6 21  2  0  0  0  0
  6 23  1  0  0  0  0
  7  9  1  0  0  0  0
  7 13  1  0  0  0  0
  8 10  1  0  0  0  0
  8 13  1  0  0  0  0
  9 14  1  0  0  0  0
 10 14  1  0  0  0  0
 11 14  1  0  0  0  0
 11 20  1  0  0  0  0
 12 14  1  0  0  0  0
 12 20  1  0  0  0  0
 13 22  1  0  0  0  0
 15 18  1  0  0  0  0
 16 18  1  0  0  0  0
 17 18  1  0  0  0  0
 18 23  1  0  0  0  0
  1 25  1  0  0  0  0
  2 26  1  0  0  0  0
  3 27  1  0  0  0  0
  7 28  1  0  0  0  0
  7 29  1  0  0  0  0
  8 30  1  0  0  0  0
  8 31  1  0  0  0  0
  9 32  1  0  0  0  0
  9 33  1  0  0  0  0
 10 34  1  0  0  0  0
 10 35  1  0  0  0  0
 11 36  1  0  0  0  0
 11 37  1  0  0  0  0
 12 38  1  0  0  0  0
 12 39  1  0  0  0  0
 15 40  1  0  0  0  0
 15 41  1  0  0  0  0
 15 42  1  0  0  0  0
 16 43  1  0  0  0  0
 16 44  1  0  0  0  0
 16 45  1  0  0  0  0
 17 46  1  0  0  0  0
 17 47  1  0  0  0  0
 17 48  1  0  0  0  0
 22 49  1  0  0  0  0
M  END
> <id>
EN300-7428880

> <smiles>
CC(C)(C)OC(=O)N1CC2(C1)CCC(O)(CC2)C=3C=CC(Br)=CN3

> <IUPAC Name>
tert-butyl 7-(5-bromopyridin-2-yl)-7-hydroxy-2-azaspiro[3.5]nonane-2-carboxylate

> <CAS>
2309475-93-0

> <URL>
https://www.enaminestore.com/catalog/EN300-7428880

> <ROCS_ShapeQuery>
_x0404_0B

> <ROCS_TanimotoCombo>
0.428 

> <ROCS_ShapeTanimoto>
0.380 

> <ROCS_ColorTanimoto>
0.048 

> <ROCS_RefTversky>
0.331 

> <ROCS_RefColorTversky>
0.054 

> <ROCS_RefTverskyCombo>
0.385 

> <ROCS_FitTversky>
1.629 

> <ROCS_FitColorTversky>
0.315 

> <ROCS_FitTverskyCombo>
1.944 

> <ROCS_ColorScore>
-3.889

> <ROCS_Overlap>
2212.513

> <ROCS_Rank>
487                 

$$$$
untitled-dbase-90367_264
  -OEChem-08222312023D

 44 46  0     0  0  0  0  0  0999 V2000
   -9.5953    4.8240  -17.8840 C   0  0  0  0  0  0  0  0  0  0  0  0
   -7.3692    5.4431  -16.2166 C   0  0  0  0  0  0  0  0  0  0  0  0
   -9.7682    5.0331  -16.5080 C   0  0  0  0  0  0  0  0  0  0  0  0
   -8.6661    5.3334  -15.7193 C   0  0  0  0  0  0  0  0  0  0  0  0
   -8.3012    4.9284  -18.4107 C   0  0  0  0  0  0  0  0  0  0  0  0
   -7.2102    5.2322  -17.5907 C   0  0  0  0  0  0  0  0  0  0  0  0
   -8.9462    5.1374   -8.8757 C   0  0  0  0  0  0  0  0  0  0  0  0
   -9.3671    6.6582  -12.2594 C   0  0  0  0  0  0  0  0  0  0  0  0
   -7.9220    4.5501  -12.4541 C   0  0  0  0  0  0  0  0  0  0  0  0
   -8.8539    6.6536  -10.8257 C   0  0  0  0  0  0  0  0  0  0  0  0
   -8.6911    4.1779  -11.1889 C   0  0  0  0  0  0  0  0  0  0  0  0
   -8.4820    5.7947  -13.1747 C   0  0  0  0  0  0  0  0  0  0  0  0
  -11.1240    3.8189   -7.5708 C   0  0  0  0  0  0  0  0  0  0  0  0
   -9.4832    1.9772   -7.0964 C   0  0  0  0  0  0  0  0  0  0  0  0
   -9.0981    4.2704   -6.1473 C   0  0  0  0  0  0  0  0  0  0  0  0
   -9.6547    3.4768   -7.3285 C   0  0  0  0  0  0  0  0  0  0  0  0
  -10.8918    4.9982  -15.7250 N   0  0  0  0  0  0  0  0  0  0  0  0
  -10.5308    5.2661  -14.4748 N   0  0  0  0  0  0  0  0  0  0  0  0
   -9.2024    5.4659  -14.4711 N   0  0  0  0  0  0  0  0  0  0  0  0
   -8.8233    5.3054  -10.2594 N   0  0  0  0  0  0  0  0  0  0  0  0
   -9.0818    6.0622   -8.0766 O   0  0  0  0  0  0  0  0  0  0  0  0
   -8.9075    3.8201   -8.5010 O   0  0  0  0  0  0  0  0  0  0  0  0
   -8.1235    4.7303  -19.7258 F   0  0  0  0  0  0  0  0  0  0  0  0
   -5.6326    5.3515  -18.2780 Cl  0  0  0  0  0  0  0  0  0  0  0  0
  -10.4357    4.5878  -18.5278 H   0  0  0  0  0  0  0  0  0  0  0  0
   -6.5324    5.6794  -15.5685 H   0  0  0  0  0  0  0  0  0  0  0  0
  -10.4019    6.2887  -12.2795 H   0  0  0  0  0  0  0  0  0  0  0  0
   -9.3989    7.6888  -12.6361 H   0  0  0  0  0  0  0  0  0  0  0  0
   -6.8574    4.7169  -12.2004 H   0  0  0  0  0  0  0  0  0  0  0  0
   -7.9217    3.6858  -13.1479 H   0  0  0  0  0  0  0  0  0  0  0  0
   -7.8236    7.0412  -10.7890 H   0  0  0  0  0  0  0  0  0  0  0  0
   -9.4662    7.3312  -10.2151 H   0  0  0  0  0  0  0  0  0  0  0  0
   -9.6823    3.7845  -11.4589 H   0  0  0  0  0  0  0  0  0  0  0  0
   -8.1689    3.3739  -10.6467 H   0  0  0  0  0  0  0  0  0  0  0  0
   -7.6220    6.4263  -13.5328 H   0  0  0  0  0  0  0  0  0  0  0  0
  -11.2513    4.8945   -7.7378 H   0  0  0  0  0  0  0  0  0  0  0  0
  -11.5255    3.2826   -8.4369 H   0  0  0  0  0  0  0  0  0  0  0  0
  -11.7335    3.5678   -6.6952 H   0  0  0  0  0  0  0  0  0  0  0  0
   -8.4305    1.7272   -6.9221 H   0  0  0  0  0  0  0  0  0  0  0  0
   -9.7935    1.4075   -7.9799 H   0  0  0  0  0  0  0  0  0  0  0  0
  -10.0683    1.6317   -6.2380 H   0  0  0  0  0  0  0  0  0  0  0  0
   -8.0442    4.0252   -5.9732 H   0  0  0  0  0  0  0  0  0  0  0  0
   -9.1791    5.3496   -6.3125 H   0  0  0  0  0  0  0  0  0  0  0  0
   -9.6309    4.0186   -5.2231 H   0  0  0  0  0  0  0  0  0  0  0  0
  1  3  2  0  0  0  0
  1  5  1  0  0  0  0
  2  4  2  0  0  0  0
  2  6  1  0  0  0  0
  3  4  1  0  0  0  0
  3 17  1  0  0  0  0
  4 19  1  0  0  0  0
  5  6  2  0  0  0  0
  5 23  1  0  0  0  0
  6 24  1  0  0  0  0
  7 20  1  0  0  0  0
  7 21  2  0  0  0  0
  7 22  1  0  0  0  0
  8 10  1  0  0  0  0
  8 12  1  0  0  0  0
  9 11  1  0  0  0  0
  9 12  1  0  0  0  0
 10 20  1  0  0  0  0
 11 20  1  0  0  0  0
 12 19  1  0  0  0  0
 13 16  1  0  0  0  0
 14 16  1  0  0  0  0
 15 16  1  0  0  0  0
 16 22  1  0  0  0  0
 17 18  2  0  0  0  0
 18 19  1  0  0  0  0
  1 25  1  0  0  0  0
  2 26  1  0  0  0  0
  8 27  1  0  0  0  0
  8 28  1  0  0  0  0
  9 29  1  0  0  0  0
  9 30  1  0  0  0  0
 10 31  1  0  0  0  0
 10 32  1  0  0  0  0
 11 33  1  0  0  0  0
 11 34  1  0  0  0  0
 12 35  1  0  0  0  0
 13 36  1  0  0  0  0
 13 37  1  0  0  0  0
 13 38  1  0  0  0  0
 14 39  1  0  0  0  0
 14 40  1  0  0  0  0
 14 41  1  0  0  0  0
 15 42  1  0  0  0  0
 15 43  1  0  0  0  0
 15 44  1  0  0  0  0
M  END
> <id>
EN300-6750358

> <smiles>
CC(C)(C)OC(=O)N1CCC(CC1)N2N=NC=3C=C(F)C(Cl)=CC23

> <IUPAC Name>
tert-butyl 4-(6-chloro-5-fluoro-1H-1,2,3-benzotriazol-1-yl)piperidine-1-carboxylate

> <CAS>
2287345-44-0

> <URL>
https://www.enaminestore.com/catalog/EN300-6750358

> <ROCS_ShapeQuery>
_x0404_0B

> <ROCS_TanimotoCombo>
0.428 

> <ROCS_ShapeTanimoto>
0.377 

> <ROCS_ColorTanimoto>
0.051 

> <ROCS_RefTversky>
0.330 

> <ROCS_RefColorTversky>
0.056 

> <ROCS_RefTverskyCombo>
0.386 

> <ROCS_FitTversky>
1.601 

> <ROCS_FitColorTversky>
0.373 

> <ROCS_FitTverskyCombo>
1.974 

> <ROCS_ColorScore>
-4.016

> <ROCS_Overlap>
2206.663

> <ROCS_Rank>
488                 

$$$$
untitled-dbase-89722_485
  -OEChem-08222312023D

 44 46  0     1  0  0  0  0  0999 V2000
   -9.0840    4.4702   -6.9797 C   0  0  0  0  0  0  0  0  0  0  0  0
   -9.0467    2.5033   -9.0410 C   0  0  0  0  0  0  0  0  0  0  0  0
   -8.9992    4.8479   -8.3278 C   0  0  0  0  0  0  0  0  0  0  0  0
   -8.9829    3.8686   -9.3114 C   0  0  0  0  0  0  0  0  0  0  0  0
   -9.1310    2.1397   -7.6924 C   0  0  0  0  0  0  0  0  0  0  0  0
   -9.1495    3.1033   -6.6794 C   0  0  0  0  0  0  0  0  0  0  0  0
   -8.3968    5.6485  -15.3510 C   0  0  0  0  0  0  0  0  0  0  0  0
   -7.6085    2.5807  -13.5583 C   0  0  0  0  0  0  0  0  0  0  0  0
   -7.6516    3.1205  -12.1243 C   0  0  0  0  0  0  0  0  0  0  0  0
   -8.5363    3.3134  -14.5238 C   0  0  0  0  0  0  0  0  0  0  0  0
   -8.8089    5.2118  -12.9173 C   0  0  0  0  0  0  0  0  0  0  0  0
   -8.8387    4.0668  -11.8916 C   0  0  2  0  0  0  0  0  0  0  0  0
   -6.0535    5.8935  -16.9739 C   0  0  0  0  0  0  0  0  0  0  0  0
   -7.4142    4.8011  -18.7807 C   0  0  0  0  0  0  0  0  0  0  0  0
   -8.1238    7.0241  -17.8517 C   0  0  0  0  0  0  0  0  0  0  0  0
   -7.4589    5.6850  -17.5361 C   0  0  0  0  0  0  0  0  0  0  0  0
   -8.9234    6.0833   -8.9148 N   0  0  0  0  0  0  0  0  0  0  0  0
   -8.8603    5.9107  -10.2306 N   0  0  0  0  0  0  0  0  0  0  0  0
   -8.8956    4.5890  -10.4675 N   0  0  0  0  0  0  0  0  0  0  0  0
   -8.5476    4.7535  -14.2867 N   0  0  0  0  0  0  0  0  0  0  0  0
   -8.3950    6.8725  -15.2372 O   0  0  0  0  0  0  0  0  0  0  0  0
   -8.2471    5.0052  -16.5523 O   0  0  0  0  0  0  0  0  0  0  0  0
   -9.1946    0.8357   -7.3820 F   0  0  0  0  0  0  0  0  0  0  0  0
   -9.2542    2.6109   -5.0302 Cl  0  0  0  0  0  0  0  0  0  0  0  0
   -9.0978    5.2235   -6.1982 H   0  0  0  0  0  0  0  0  0  0  0  0
   -9.0322    1.7578   -9.8272 H   0  0  0  0  0  0  0  0  0  0  0  0
   -6.5703    2.6317  -13.9356 H   0  0  0  0  0  0  0  0  0  0  0  0
   -7.8690    1.5044  -13.5488 H   0  0  0  0  0  0  0  0  0  0  0  0
   -7.6953    2.2763  -11.4165 H   0  0  0  0  0  0  0  0  0  0  0  0
   -6.7043    3.6437  -11.9074 H   0  0  0  0  0  0  0  0  0  0  0  0
   -8.2051    3.1576  -15.5613 H   0  0  0  0  0  0  0  0  0  0  0  0
   -9.5508    2.8987  -14.4476 H   0  0  0  0  0  0  0  0  0  0  0  0
   -9.7529    5.7843  -12.8626 H   0  0  0  0  0  0  0  0  0  0  0  0
   -8.0114    5.9386  -12.6665 H   0  0  0  0  0  0  0  0  0  0  0  0
   -9.7880    3.5057  -12.0000 H   0  0  0  0  0  0  0  0  0  0  0  0
   -6.0814    6.5275  -16.0804 H   0  0  0  0  0  0  0  0  0  0  0  0
   -5.5791    4.9425  -16.7108 H   0  0  0  0  0  0  0  0  0  0  0  0
   -5.4148    6.4099  -17.6995 H   0  0  0  0  0  0  0  0  0  0  0  0
   -8.4205    4.6488  -19.1874 H   0  0  0  0  0  0  0  0  0  0  0  0
   -7.0252    3.8054  -18.5385 H   0  0  0  0  0  0  0  0  0  0  0  0
   -6.7861    5.2377  -19.5639 H   0  0  0  0  0  0  0  0  0  0  0  0
   -9.1319    6.8747  -18.2550 H   0  0  0  0  0  0  0  0  0  0  0  0
   -8.1979    7.6572  -16.9616 H   0  0  0  0  0  0  0  0  0  0  0  0
   -7.5609    7.5672  -18.6195 H   0  0  0  0  0  0  0  0  0  0  0  0
  1  3  2  0  0  0  0
  1  6  1  0  0  0  0
  2  4  2  0  0  0  0
  2  5  1  0  0  0  0
  3  4  1  0  0  0  0
  3 17  1  0  0  0  0
  4 19  1  0  0  0  0
  5  6  2  0  0  0  0
  5 23  1  0  0  0  0
  6 24  1  0  0  0  0
  7 20  1  0  0  0  0
  7 21  2  0  0  0  0
  7 22  1  0  0  0  0
  8  9  1  0  0  0  0
  8 10  1  0  0  0  0
  9 12  1  0  0  0  0
 10 20  1  0  0  0  0
 11 12  1  0  0  0  0
 11 20  1  0  0  0  0
 12 19  1  0  0  0  0
 13 16  1  0  0  0  0
 14 16  1  0  0  0  0
 15 16  1  0  0  0  0
 16 22  1  0  0  0  0
 17 18  2  0  0  0  0
 18 19  1  0  0  0  0
  1 25  1  0  0  0  0
  2 26  1  0  0  0  0
  8 27  1  0  0  0  0
  8 28  1  0  0  0  0
  9 29  1  0  0  0  0
  9 30  1  0  0  0  0
 10 31  1  0  0  0  0
 10 32  1  0  0  0  0
 11 33  1  0  0  0  0
 11 34  1  0  0  0  0
 12 35  1  0  0  0  0
 13 36  1  0  0  0  0
 13 37  1  0  0  0  0
 13 38  1  0  0  0  0
 14 39  1  0  0  0  0
 14 40  1  0  0  0  0
 14 41  1  0  0  0  0
 15 42  1  0  0  0  0
 15 43  1  0  0  0  0
 15 44  1  0  0  0  0
M  END
> <id>
EN300-6750644

> <smiles>
CC(C)(C)OC(=O)N1CCCC(C1)N2N=NC=3C=C(Cl)C(F)=CC23

> <IUPAC Name>
tert-butyl 3-(5-chloro-6-fluoro-1H-1,2,3-benzotriazol-1-yl)piperidine-1-carboxylate

> <CAS>
2287320-33-4

> <URL>
https://www.enaminestore.com/catalog/EN300-6750644

> <ROCS_ShapeQuery>
_x0404_0B

> <ROCS_TanimotoCombo>
0.428 

> <ROCS_ShapeTanimoto>
0.360 

> <ROCS_ColorTanimoto>
0.068 

> <ROCS_RefTversky>
0.319 

> <ROCS_RefColorTversky>
0.073 

> <ROCS_RefTverskyCombo>
0.393 

> <ROCS_FitTversky>
1.547 

> <ROCS_FitColorTversky>
0.492 

> <ROCS_FitTverskyCombo>
2.039 

> <ROCS_ColorScore>
-5.301

> <ROCS_Overlap>
2131.824

> <ROCS_Rank>
489                 

$$$$
untitled-dbase-155131_1020
  -OEChem-08222312023D

 41 42  0     0  0  0  0  0  0999 V2000
   -7.5123    5.2674  -18.8525 C   0  0  0  0  0  0  0  0  0  0  0  0
   -8.8963    4.9943   -9.0447 C   0  0  0  0  0  0  0  0  0  0  0  0
   -9.6213    6.5904  -14.4075 C   0  0  0  0  0  0  0  0  0  0  0  0
   -9.3387    4.4342  -17.3888 C   0  0  0  0  0  0  0  0  0  0  0  0
   -7.0159    4.8466  -16.4388 C   0  0  0  0  0  0  0  0  0  0  0  0
   -9.8076    5.7171  -16.7055 C   0  0  0  0  0  0  0  0  0  0  0  0
   -7.5592    6.1105  -15.7784 C   0  0  0  0  0  0  0  0  0  0  0  0
   -8.8995    4.4157  -11.5011 C   0  0  0  0  0  0  0  0  0  0  0  0
   -8.7178    6.7840  -10.7361 C   0  0  0  0  0  0  0  0  0  0  0  0
   -8.4169    5.0105  -12.8210 C   0  0  0  0  0  0  0  0  0  0  0  0
   -9.4748    7.1190  -12.0122 C   0  0  0  0  0  0  0  0  0  0  0  0
   -7.8326    4.4143  -17.6593 C   0  0  0  0  0  0  0  0  0  0  0  0
   -9.0124    3.5146   -8.7704 C   0  0  0  0  0  0  0  0  0  0  0  0
   -8.8430    5.3691  -10.3886 N   0  0  0  0  0  0  0  0  0  0  0  0
   -8.9997    6.0143  -15.5250 N   0  0  0  0  0  0  0  0  0  0  0  0
   -9.0985    6.2710  -13.1428 N   0  0  0  0  0  0  0  0  0  0  0  0
   -6.4449    5.8296  -19.0471 O   0  0  0  0  0  0  0  0  0  0  0  0
   -8.8496    5.7873   -8.1016 O   0  0  0  0  0  0  0  0  0  0  0  0
  -10.6056    7.3315  -14.5281 O   0  0  0  0  0  0  0  0  0  0  0  0
   -8.5744    5.3345  -19.6920 O   0  0  0  0  0  0  0  0  0  0  0  0
   -9.0426    2.8218   -9.9226 F   0  0  0  0  0  0  0  0  0  0  0  0
   -7.9643    3.0834   -8.0461 F   0  0  0  0  0  0  0  0  0  0  0  0
  -10.1379    3.2440   -8.0856 F   0  0  0  0  0  0  0  0  0  0  0  0
   -9.5980    3.5775  -16.7484 H   0  0  0  0  0  0  0  0  0  0  0  0
   -9.8985    4.3011  -18.3264 H   0  0  0  0  0  0  0  0  0  0  0  0
   -5.9693    5.0049  -16.7168 H   0  0  0  0  0  0  0  0  0  0  0  0
   -7.0328    4.0340  -15.7041 H   0  0  0  0  0  0  0  0  0  0  0  0
   -9.7187    6.5720  -17.3867 H   0  0  0  0  0  0  0  0  0  0  0  0
  -10.8656    5.6308  -16.4336 H   0  0  0  0  0  0  0  0  0  0  0  0
   -7.0032    6.2635  -14.8457 H   0  0  0  0  0  0  0  0  0  0  0  0
   -7.3922    6.9898  -16.4173 H   0  0  0  0  0  0  0  0  0  0  0  0
   -9.9109    4.0133  -11.6408 H   0  0  0  0  0  0  0  0  0  0  0  0
   -8.2625    3.5622  -11.2181 H   0  0  0  0  0  0  0  0  0  0  0  0
   -7.6468    6.9933  -10.8575 H   0  0  0  0  0  0  0  0  0  0  0  0
   -9.0782    7.4175   -9.9169 H   0  0  0  0  0  0  0  0  0  0  0  0
   -7.3340    5.1802  -12.7780 H   0  0  0  0  0  0  0  0  0  0  0  0
   -8.6051    4.3159  -13.6504 H   0  0  0  0  0  0  0  0  0  0  0  0
  -10.5568    6.9614  -11.8520 H   0  0  0  0  0  0  0  0  0  0  0  0
   -9.3851    8.1890  -12.2528 H   0  0  0  0  0  0  0  0  0  0  0  0
   -7.5403    3.3939  -17.9390 H   0  0  0  0  0  0  0  0  0  0  0  0
   -8.3854    5.8899  -20.4782 H   0  0  0  0  0  0  0  0  0  0  0  0
  1 12  1  0  0  0  0
  1 17  2  0  0  0  0
  1 20  1  0  0  0  0
  2 13  1  0  0  0  0
  2 14  1  0  0  0  0
  2 18  2  0  0  0  0
  3 15  1  0  0  0  0
  3 16  1  0  0  0  0
  3 19  2  0  0  0  0
  4  6  1  0  0  0  0
  4 12  1  0  0  0  0
  5  7  1  0  0  0  0
  5 12  1  0  0  0  0
  6 15  1  0  0  0  0
  7 15  1  0  0  0  0
  8 10  1  0  0  0  0
  8 14  1  0  0  0  0
  9 11  1  0  0  0  0
  9 14  1  0  0  0  0
 10 16  1  0  0  0  0
 11 16  1  0  0  0  0
 13 21  1  0  0  0  0
 13 22  1  0  0  0  0
 13 23  1  0  0  0  0
  4 24  1  0  0  0  0
  4 25  1  0  0  0  0
  5 26  1  0  0  0  0
  5 27  1  0  0  0  0
  6 28  1  0  0  0  0
  6 29  1  0  0  0  0
  7 30  1  0  0  0  0
  7 31  1  0  0  0  0
  8 32  1  0  0  0  0
  8 33  1  0  0  0  0
  9 34  1  0  0  0  0
  9 35  1  0  0  0  0
 10 36  1  0  0  0  0
 10 37  1  0  0  0  0
 11 38  1  0  0  0  0
 11 39  1  0  0  0  0
 12 40  1  0  0  0  0
 20 41  1  0  0  0  0
M  END
> <id>
EN300-28296582

> <smiles>
OC(=O)C1CCN(CC1)C(=O)N2CCN(CC2)C(=O)C(F)(F)F

> <IUPAC Name>
1-[4-(2,2,2-trifluoroacetyl)piperazine-1-carbonyl]piperidine-4-carboxylic acid

> <CAS>
2680874-42-2

> <URL>
https://www.enaminestore.com/catalog/EN300-28296582

> <ROCS_ShapeQuery>
_x0404_0B

> <ROCS_TanimotoCombo>
0.428 

> <ROCS_ShapeTanimoto>
0.380 

> <ROCS_ColorTanimoto>
0.048 

> <ROCS_RefTversky>
0.330 

> <ROCS_RefColorTversky>
0.053 

> <ROCS_RefTverskyCombo>
0.383 

> <ROCS_FitTversky>
1.658 

> <ROCS_FitColorTversky>
0.364 

> <ROCS_FitTverskyCombo>
2.023 

> <ROCS_ColorScore>
-3.802

> <ROCS_Overlap>
2203.241

> <ROCS_Rank>
490                 

$$$$
untitled-dbase-104036_1
  -OEChem-08222312023D

 38 39  0     0  0  0  0  0  0999 V2000
   -8.8456    5.7901   -9.9691 C   0  0  0  0  0  0  0  0  0  0  0  0
   -9.1090    5.2417   -7.7561 C   0  0  0  0  0  0  0  0  0  0  0  0
   -9.3541    3.9446   -8.1149 C   0  0  0  0  0  0  0  0  0  0  0  0
   -9.0943    4.4696  -10.3495 C   0  0  0  0  0  0  0  0  0  0  0  0
   -8.5914    6.6789  -10.9961 C   0  0  0  0  0  0  0  0  0  0  0  0
   -8.8221    5.0635  -12.5488 C   0  0  0  0  0  0  0  0  0  0  0  0
   -8.5791    5.4409  -15.0205 C   0  0  0  0  0  0  0  0  0  0  0  0
   -9.1158    5.6805   -6.3330 C   0  0  0  0  0  0  0  0  0  0  0  0
   -9.6412    2.8927   -7.0999 C   0  0  0  0  0  0  0  0  0  0  0  0
   -7.0438    5.8977  -17.3898 C   0  0  0  0  0  0  0  0  0  0  0  0
   -8.5920    4.2527  -18.4881 C   0  0  0  0  0  0  0  0  0  0  0  0
   -9.5044    6.3999  -17.5580 C   0  0  0  0  0  0  0  0  0  0  0  0
   -8.4521    5.3048  -17.3901 C   0  0  0  0  0  0  0  0  0  0  0  0
   -8.8516    6.1804   -8.6800 N   0  0  0  0  0  0  0  0  0  0  0  0
   -9.3479    3.5561   -9.4047 N   0  0  0  0  0  0  0  0  0  0  0  0
   -9.0826    4.1070  -11.6379 N   0  0  0  0  0  0  0  0  0  0  0  0
   -8.5707    6.3539  -12.3013 N   0  0  0  0  0  0  0  0  0  0  0  0
   -8.8159    4.6625  -13.9042 N   0  0  0  0  0  0  0  0  0  0  0  0
   -8.3260    6.6388  -15.0593 O   0  0  0  0  0  0  0  0  0  0  0  0
   -8.3389    7.9945  -10.6993 O   0  0  0  0  0  0  0  0  0  0  0  0
   -8.6706    4.6523  -16.1387 O   0  0  0  0  0  0  0  0  0  0  0  0
   -8.1131    5.5847   -5.8967 H   0  0  0  0  0  0  0  0  0  0  0  0
   -9.4361    6.7269   -6.2379 H   0  0  0  0  0  0  0  0  0  0  0  0
   -9.8134    5.0809   -5.7323 H   0  0  0  0  0  0  0  0  0  0  0  0
  -10.7197    2.8305   -6.9064 H   0  0  0  0  0  0  0  0  0  0  0  0
   -9.2919    1.9069   -7.4353 H   0  0  0  0  0  0  0  0  0  0  0  0
   -9.1304    3.1029   -6.1504 H   0  0  0  0  0  0  0  0  0  0  0  0
   -6.9393    6.6534  -16.6030 H   0  0  0  0  0  0  0  0  0  0  0  0
   -6.2817    5.1270  -17.2352 H   0  0  0  0  0  0  0  0  0  0  0  0
   -6.8338    6.4070  -18.3374 H   0  0  0  0  0  0  0  0  0  0  0  0
   -9.6009    3.8245  -18.4919 H   0  0  0  0  0  0  0  0  0  0  0  0
   -7.9029    3.4174  -18.3184 H   0  0  0  0  0  0  0  0  0  0  0  0
   -8.3900    4.6731  -19.4786 H   0  0  0  0  0  0  0  0  0  0  0  0
  -10.5146    5.9748  -17.5582 H   0  0  0  0  0  0  0  0  0  0  0  0
   -9.4429    7.1444  -16.7576 H   0  0  0  0  0  0  0  0  0  0  0  0
   -9.3841    6.9117  -18.5197 H   0  0  0  0  0  0  0  0  0  0  0  0
   -9.0098    3.6794  -14.0792 H   0  0  0  0  0  0  0  0  0  0  0  0
   -8.3769    8.1252   -9.7422 H   0  0  0  0  0  0  0  0  0  0  0  0
  1  4  1  0  0  0  0
  1  5  2  0  0  0  0
  1 14  1  0  0  0  0
  2  3  1  0  0  0  0
  2  8  1  0  0  0  0
  2 14  2  0  0  0  0
  3  9  1  0  0  0  0
  3 15  2  0  0  0  0
  4 15  1  0  0  0  0
  4 16  2  0  0  0  0
  5 17  1  0  0  0  0
  5 20  1  0  0  0  0
  6 16  1  0  0  0  0
  6 17  2  0  0  0  0
  6 18  1  0  0  0  0
  7 18  1  0  0  0  0
  7 19  2  0  0  0  0
  7 21  1  0  0  0  0
 10 13  1  0  0  0  0
 11 13  1  0  0  0  0
 12 13  1  0  0  0  0
 13 21  1  0  0  0  0
  8 22  1  0  0  0  0
  8 23  1  0  0  0  0
  8 24  1  0  0  0  0
  9 25  1  0  0  0  0
  9 26  1  0  0  0  0
  9 27  1  0  0  0  0
 10 28  1  0  0  0  0
 10 29  1  0  0  0  0
 10 30  1  0  0  0  0
 11 31  1  0  0  0  0
 11 32  1  0  0  0  0
 11 33  1  0  0  0  0
 12 34  1  0  0  0  0
 12 35  1  0  0  0  0
 12 36  1  0  0  0  0
 18 37  1  0  0  0  0
 20 38  1  0  0  0  0
M  END
> <id>
EN300-26665358

> <smiles>
CC=1N=C2N=C(NC(=O)OC(C)(C)C)N=C(O)C2=NC1C

> <IUPAC Name>
tert-butyl N-(4-hydroxy-6,7-dimethylpteridin-2-yl)carbamate

> <CAS>
2413883-53-9

> <URL>
https://www.enaminestore.com/catalog/EN300-26665358

> <ROCS_ShapeQuery>
_x0404_0B

> <ROCS_TanimotoCombo>
0.428 

> <ROCS_ShapeTanimoto>
0.351 

> <ROCS_ColorTanimoto>
0.077 

> <ROCS_RefTversky>
0.309 

> <ROCS_RefColorTversky>
0.086 

> <ROCS_RefTverskyCombo>
0.395 

> <ROCS_FitTversky>
1.624 

> <ROCS_FitColorTversky>
0.435 

> <ROCS_FitTverskyCombo>
2.060 

> <ROCS_ColorScore>
-6.206

> <ROCS_Overlap>
2062.766

> <ROCS_Rank>
491                 

$$$$
untitled-dbase-157947_9
  -OEChem-08222312023D

 38 41  0     1  0  0  0  0  0999 V2000
   -8.8617    6.4298  -11.9938 C   0  0  0  0  0  0  0  0  0  0  0  0
   -8.2773    3.6933  -11.3047 C   0  0  0  0  0  0  0  0  0  0  0  0
   -8.4773    5.4926  -12.9333 C   0  0  0  0  0  0  0  0  0  0  0  0
   -8.1944    4.1676  -12.5997 C   0  0  0  0  0  0  0  0  0  0  0  0
   -8.9383    5.9699  -10.6863 C   0  0  0  0  0  0  0  0  0  0  0  0
   -8.6516    4.6270  -10.3482 C   0  0  0  0  0  0  0  0  0  0  0  0
   -8.2964    5.6414  -14.3772 C   0  0  0  0  0  0  0  0  0  0  0  0
   -7.8310    3.4617  -13.8285 C   0  0  0  0  0  0  0  0  0  0  0  0
   -9.0917    6.0340  -17.8944 C   0  0  0  0  0  0  0  0  0  0  0  0
   -6.9554    5.3492  -16.7759 C   0  0  0  0  0  0  0  0  0  0  0  0
   -9.3587    6.7436   -9.4733 C   0  0  0  0  0  0  0  0  0  0  0  0
   -8.8569    4.3945   -8.8817 C   0  0  0  0  0  0  0  0  0  0  0  0
   -9.8007    4.8744  -17.2403 C   0  0  0  0  0  0  0  0  0  0  0  0
   -8.8617    3.7025  -17.0160 C   0  0  0  0  0  0  0  0  0  0  0  0
   -7.6343    4.1158  -16.2191 C   0  0  2  0  0  0  0  0  0  0  0  0
   -8.8778    5.8333   -8.3233 C   0  0  0  0  0  0  0  0  0  0  0  0
   -7.7418    6.1623  -17.5863 N   0  0  0  0  0  0  0  0  0  0  0  0
   -7.9188    4.3974  -14.8376 N   0  0  0  0  0  0  0  0  0  0  0  0
   -7.5349    6.2300   -7.8866 N   0  0  0  0  0  0  0  0  0  0  0  0
   -8.4607    6.6852  -14.9812 O   0  0  0  0  0  0  0  0  0  0  0  0
   -7.5214    2.2855  -13.8718 O   0  0  0  0  0  0  0  0  0  0  0  0
   -9.6962    6.8406  -18.6005 O   0  0  0  0  0  0  0  0  0  0  0  0
   -5.8075    5.6553  -16.4498 O   0  0  0  0  0  0  0  0  0  0  0  0
   -9.0858    7.4558  -12.2563 H   0  0  0  0  0  0  0  0  0  0  0  0
   -8.0626    2.6637  -11.0482 H   0  0  0  0  0  0  0  0  0  0  0  0
   -8.8550    7.7217   -9.4694 H   0  0  0  0  0  0  0  0  0  0  0  0
  -10.4458    6.8975   -9.4316 H   0  0  0  0  0  0  0  0  0  0  0  0
   -9.7991    3.8710   -8.6684 H   0  0  0  0  0  0  0  0  0  0  0  0
   -8.0180    3.8053   -8.4825 H   0  0  0  0  0  0  0  0  0  0  0  0
  -10.2045    5.2104  -16.2787 H   0  0  0  0  0  0  0  0  0  0  0  0
  -10.6414    4.5837  -17.8805 H   0  0  0  0  0  0  0  0  0  0  0  0
   -9.4071    2.8973  -16.4869 H   0  0  0  0  0  0  0  0  0  0  0  0
   -8.5600    3.2831  -17.9931 H   0  0  0  0  0  0  0  0  0  0  0  0
   -6.8770    3.3001  -16.2242 H   0  0  0  0  0  0  0  0  0  0  0  0
   -9.5516    5.8981   -7.4948 H   0  0  0  0  0  0  0  0  0  0  0  0
   -7.2667    6.9565  -18.0099 H   0  0  0  0  0  0  0  0  0  0  0  0
   -7.5751    7.1652   -7.5518 H   0  0  0  0  0  0  0  0  0  0  0  0
   -7.2442    5.6144   -7.1621 H   0  0  0  0  0  0  0  0  0  0  0  0
  1  3  1  0  0  0  0
  1  5  2  0  0  0  0
  2  4  1  0  0  0  0
  2  6  2  0  0  0  0
  3  4  2  0  0  0  0
  3  7  1  0  0  0  0
  4  8  1  0  0  0  0
  5  6  1  0  0  0  0
  5 11  1  0  0  0  0
  6 12  1  0  0  0  0
  7 18  1  0  0  0  0
  7 20  2  0  0  0  0
  8 18  1  0  0  0  0
  8 21  2  0  0  0  0
  9 13  1  0  0  0  0
  9 17  1  0  0  0  0
  9 22  2  0  0  0  0
 10 15  1  0  0  0  0
 10 17  1  0  0  0  0
 10 23  2  0  0  0  0
 11 16  1  0  0  0  0
 12 16  1  0  0  0  0
 13 14  1  0  0  0  0
 14 15  1  0  0  0  0
 15 18  1  0  0  0  0
 16 19  1  0  0  0  0
  1 24  1  0  0  0  0
  2 25  1  0  0  0  0
 11 26  1  0  0  0  0
 11 27  1  0  0  0  0
 12 28  1  0  0  0  0
 12 29  1  0  0  0  0
 13 30  1  0  0  0  0
 13 31  1  0  0  0  0
 14 32  1  0  0  0  0
 14 33  1  0  0  0  0
 15 34  1  0  0  0  0
 16 35  1  0  0  0  0
 17 36  1  0  0  0  0
 19 37  1  0  0  0  0
 19 38  1  0  0  0  0
M  END
> <id>
EN300-39872085

> <smiles>
NC1CC=2C=C3C(=O)N(C4CCC(=O)NC4=O)C(=O)C3=CC2C1

> <IUPAC Name>
3-{6-amino-1,3-dioxo-1H,2H,3H,5H,6H,7H-cyclopenta[f]isoindol-2-yl}piperidine-2,6-dione

> <URL>
https://www.enaminestore.com/catalog/EN300-39872085

> <ROCS_ShapeQuery>
_x0404_0B

> <ROCS_TanimotoCombo>
0.428 

> <ROCS_ShapeTanimoto>
0.330 

> <ROCS_ColorTanimoto>
0.098 

> <ROCS_RefTversky>
0.299 

> <ROCS_RefColorTversky>
0.107 

> <ROCS_RefTverskyCombo>
0.406 

> <ROCS_FitTversky>
1.452 

> <ROCS_FitColorTversky>
0.541 

> <ROCS_FitTverskyCombo>
1.993 

> <ROCS_ColorScore>
-7.722

> <ROCS_Overlap>
1998.467

> <ROCS_Rank>
492                 

$$$$
untitled-dbase-6149_1067
  -OEChem-08222312023D

 48 49  0     1  0  0  0  0  0999 V2000
   -8.7502    5.6689   -9.0096 C   0  0  0  0  0  0  0  0  0  0  0  0
   -8.3688    5.6548  -14.5194 C   0  0  0  0  0  0  0  0  0  0  0  0
   -8.6801    2.7850   -6.4930 C   0  0  0  0  0  0  0  0  0  0  0  0
   -8.7909    4.2209   -6.9981 C   0  0  0  0  0  0  0  0  0  0  0  0
   -9.5009    1.8302   -7.3582 C   0  0  0  0  0  0  0  0  0  0  0  0
   -7.4193    5.1414  -11.0296 C   0  0  0  0  0  0  0  0  0  0  0  0
   -9.1473    6.8946  -11.2044 C   0  0  0  0  0  0  0  0  0  0  0  0
   -7.9357    4.4951  -12.3120 C   0  0  0  0  0  0  0  0  0  0  0  0
   -9.6681    6.2542  -12.4883 C   0  0  0  0  0  0  0  0  0  0  0  0
   -9.3025    3.2761   -9.2809 C   0  0  0  0  0  0  0  0  0  0  0  0
   -8.4718    4.2915   -8.4915 C   0  0  1  0  0  0  0  0  0  0  0  0
   -6.5801    5.5828  -16.7524 C   0  0  0  0  0  0  0  0  0  0  0  0
   -7.2985    3.1902  -17.0140 C   0  0  0  0  0  0  0  0  0  0  0  0
   -8.9856    5.0356  -17.2511 C   0  0  0  0  0  0  0  0  0  0  0  0
   -7.7133    4.5805  -16.5376 C   0  0  0  0  0  0  0  0  0  0  0  0
   -9.1232    1.9141   -8.7712 N   0  0  0  0  0  0  0  0  0  0  0  0
   -8.4831    5.8932  -10.3590 N   0  0  0  0  0  0  0  0  0  0  0  0
   -8.6156    5.4858  -13.1549 N   0  0  0  0  0  0  0  0  0  0  0  0
   -9.1901    6.5262   -8.2393 O   0  0  0  0  0  0  0  0  0  0  0  0
   -8.4821    6.7238  -15.1165 O   0  0  0  0  0  0  0  0  0  0  0  0
   -7.9842    4.4927  -15.1339 O   0  0  0  0  0  0  0  0  0  0  0  0
   -7.6272    2.4760   -6.5001 H   0  0  0  0  0  0  0  0  0  0  0  0
   -9.0221    2.7311   -5.4534 H   0  0  0  0  0  0  0  0  0  0  0  0
   -9.8062    4.5969   -6.8078 H   0  0  0  0  0  0  0  0  0  0  0  0
   -8.1118    4.8708   -6.4309 H   0  0  0  0  0  0  0  0  0  0  0  0
   -9.3468    0.8022   -7.0122 H   0  0  0  0  0  0  0  0  0  0  0  0
  -10.5716    2.0406   -7.2473 H   0  0  0  0  0  0  0  0  0  0  0  0
   -7.0096    4.3723  -10.3672 H   0  0  0  0  0  0  0  0  0  0  0  0
   -6.6104    5.8468  -11.2537 H   0  0  0  0  0  0  0  0  0  0  0  0
   -8.4041    7.6669  -11.4367 H   0  0  0  0  0  0  0  0  0  0  0  0
   -9.9723    7.3852  -10.6851 H   0  0  0  0  0  0  0  0  0  0  0  0
   -7.1057    4.0222  -12.8436 H   0  0  0  0  0  0  0  0  0  0  0  0
   -8.6660    3.7109  -12.0790 H   0  0  0  0  0  0  0  0  0  0  0  0
  -10.4882    5.5610  -12.2659 H   0  0  0  0  0  0  0  0  0  0  0  0
  -10.0622    7.0268  -13.1561 H   0  0  0  0  0  0  0  0  0  0  0  0
  -10.3693    3.5396   -9.2638 H   0  0  0  0  0  0  0  0  0  0  0  0
   -9.0078    3.2980  -10.3381 H   0  0  0  0  0  0  0  0  0  0  0  0
   -7.4044    4.0955   -8.6494 H   0  0  0  0  0  0  0  0  0  0  0  0
   -6.8739    6.5821  -16.4117 H   0  0  0  0  0  0  0  0  0  0  0  0
   -5.6722    5.2859  -16.2172 H   0  0  0  0  0  0  0  0  0  0  0  0
   -6.3387    5.6779  -17.8172 H   0  0  0  0  0  0  0  0  0  0  0  0
   -8.1086    2.4678  -16.8619 H   0  0  0  0  0  0  0  0  0  0  0  0
   -6.4425    2.8197  -16.4386 H   0  0  0  0  0  0  0  0  0  0  0  0
   -7.0290    3.1904  -18.0751 H   0  0  0  0  0  0  0  0  0  0  0  0
   -9.7986    4.3168  -17.0972 H   0  0  0  0  0  0  0  0  0  0  0  0
   -9.3190    6.0158  -16.8951 H   0  0  0  0  0  0  0  0  0  0  0  0
   -8.8255    5.0942  -18.3337 H   0  0  0  0  0  0  0  0  0  0  0  0
   -8.1411    1.6539   -8.8656 H   0  0  0  0  0  0  0  0  0  0  0  0
  1 11  1  0  0  0  0
  1 17  1  0  0  0  0
  1 19  2  0  0  0  0
  2 18  1  0  0  0  0
  2 20  2  0  0  0  0
  2 21  1  0  0  0  0
  3  4  1  0  0  0  0
  3  5  1  0  0  0  0
  4 11  1  0  0  0  0
  5 16  1  0  0  0  0
  6  8  1  0  0  0  0
  6 17  1  0  0  0  0
  7  9  1  0  0  0  0
  7 17  1  0  0  0  0
  8 18  1  0  0  0  0
  9 18  1  0  0  0  0
 10 11  1  0  0  0  0
 10 16  1  0  0  0  0
 12 15  1  0  0  0  0
 13 15  1  0  0  0  0
 14 15  1  0  0  0  0
 15 21  1  0  0  0  0
  3 22  1  0  0  0  0
  3 23  1  0  0  0  0
  4 24  1  0  0  0  0
  4 25  1  0  0  0  0
  5 26  1  0  0  0  0
  5 27  1  0  0  0  0
  6 28  1  0  0  0  0
  6 29  1  0  0  0  0
  7 30  1  0  0  0  0
  7 31  1  0  0  0  0
  8 32  1  0  0  0  0
  8 33  1  0  0  0  0
  9 34  1  0  0  0  0
  9 35  1  0  0  0  0
 10 36  1  0  0  0  0
 10 37  1  0  0  0  0
 11 38  1  0  0  0  0
 12 39  1  0  0  0  0
 12 40  1  0  0  0  0
 12 41  1  0  0  0  0
 13 42  1  0  0  0  0
 13 43  1  0  0  0  0
 13 44  1  0  0  0  0
 14 45  1  0  0  0  0
 14 46  1  0  0  0  0
 14 47  1  0  0  0  0
 16 48  1  0  0  0  0
M  END
> <id>
EN300-51855

> <smiles>
CC(C)(C)OC(=O)N1CCN(CC1)C(=O)C2CCCNC2

> <MDLNUMBER>
MFCD12913028

> <IUPAC Name>
tert-butyl 4-(piperidine-3-carbonyl)piperazine-1-carboxylate

> <CAS>
1193387-72-2

> <Purity>
95

> <URL>
https://www.enaminestore.com/catalog/EN300-51855

> <ROCS_ShapeQuery>
_x0404_0B

> <ROCS_TanimotoCombo>
0.428 

> <ROCS_ShapeTanimoto>
0.323 

> <ROCS_ColorTanimoto>
0.105 

> <ROCS_RefTversky>
0.288 

> <ROCS_RefColorTversky>
0.109 

> <ROCS_RefTverskyCombo>
0.397 

> <ROCS_FitTversky>
1.580 

> <ROCS_FitColorTversky>
0.754 

> <ROCS_FitTverskyCombo>
2.334 

> <ROCS_ColorScore>
-7.862

> <ROCS_Overlap>
1924.080

> <ROCS_Rank>
493                 

$$$$
untitled-dbase-97558_7
  -OEChem-08222312023D

 34 37  0     0  0  0  0  0  0999 V2000
   -8.7038    6.8053  -12.1715 C   0  0  0  0  0  0  0  0  0  0  0  0
   -8.7529    6.9736  -10.7876 C   0  0  0  0  0  0  0  0  0  0  0  0
   -8.9050    4.4118  -11.8948 C   0  0  0  0  0  0  0  0  0  0  0  0
   -7.6477    5.7442  -14.9346 C   0  0  0  0  0  0  0  0  0  0  0  0
   -8.7741    5.5260  -12.7240 C   0  0  0  0  0  0  0  0  0  0  0  0
   -8.8691    5.8588   -9.9569 C   0  0  0  0  0  0  0  0  0  0  0  0
   -8.9675    4.5802  -10.5114 C   0  0  0  0  0  0  0  0  0  0  0  0
   -8.7068    5.3553  -14.1485 C   0  0  0  0  0  0  0  0  0  0  0  0
   -9.2592    4.8097  -16.1396 C   0  0  0  0  0  0  0  0  0  0  0  0
   -9.8363    4.3623  -17.3625 C   0  0  0  0  0  0  0  0  0  0  0  0
   -9.1606    4.5185  -18.5172 C   0  0  0  0  0  0  0  0  0  0  0  0
   -7.2930    5.5613  -17.4016 C   0  0  0  0  0  0  0  0  0  0  0  0
   -7.8377    5.1395  -18.5587 C   0  0  0  0  0  0  0  0  0  0  0  0
   -8.6623    4.8870   -7.8597 C   0  0  0  0  0  0  0  0  0  0  0  0
   -9.5105    3.7572   -8.4103 C   0  0  0  0  0  0  0  0  0  0  0  0
   -7.1665    5.2687  -19.8878 C   0  0  0  0  0  0  0  0  0  0  0  0
   -9.6999    4.7782  -14.8986 N   0  0  0  0  0  0  0  0  0  0  0  0
   -7.9994    5.3955  -16.2135 N   0  0  0  0  0  0  0  0  0  0  0  0
   -8.8901    6.0859   -8.6056 O   0  0  0  0  0  0  0  0  0  0  0  0
   -9.1168    3.4502   -9.7507 O   0  0  0  0  0  0  0  0  0  0  0  0
   -8.6145    7.6829  -12.8077 H   0  0  0  0  0  0  0  0  0  0  0  0
   -8.7113    7.9740  -10.3657 H   0  0  0  0  0  0  0  0  0  0  0  0
   -8.9480    3.4102  -12.3180 H   0  0  0  0  0  0  0  0  0  0  0  0
   -6.7041    6.2232  -14.7086 H   0  0  0  0  0  0  0  0  0  0  0  0
  -10.8168    3.8995  -17.3504 H   0  0  0  0  0  0  0  0  0  0  0  0
   -9.5969    4.1799  -19.4517 H   0  0  0  0  0  0  0  0  0  0  0  0
   -6.3184    6.0314  -17.3415 H   0  0  0  0  0  0  0  0  0  0  0  0
   -8.8871    5.0833   -6.8041 H   0  0  0  0  0  0  0  0  0  0  0  0
   -7.5995    4.6402   -7.9429 H   0  0  0  0  0  0  0  0  0  0  0  0
   -9.4195    2.8493   -7.8014 H   0  0  0  0  0  0  0  0  0  0  0  0
  -10.5648    4.0492   -8.4320 H   0  0  0  0  0  0  0  0  0  0  0  0
   -7.4366    6.2195  -20.3459 H   0  0  0  0  0  0  0  0  0  0  0  0
   -7.4788    4.4530  -20.5395 H   0  0  0  0  0  0  0  0  0  0  0  0
   -6.0852    5.2240  -19.7604 H   0  0  0  0  0  0  0  0  0  0  0  0
  1  2  1  0  0  0  0
  1  5  2  0  0  0  0
  2  6  2  0  0  0  0
  3  5  1  0  0  0  0
  3  7  2  0  0  0  0
  4  8  2  0  0  0  0
  4 18  1  0  0  0  0
  5  8  1  0  0  0  0
  6  7  1  0  0  0  0
  6 19  1  0  0  0  0
  7 20  1  0  0  0  0
  8 17  1  0  0  0  0
  9 10  1  0  0  0  0
  9 17  2  0  0  0  0
  9 18  1  0  0  0  0
 10 11  2  0  0  0  0
 11 13  1  0  0  0  0
 12 13  2  0  0  0  0
 12 18  1  0  0  0  0
 13 16  1  0  0  0  0
 14 15  1  0  0  0  0
 14 19  1  0  0  0  0
 15 20  1  0  0  0  0
  1 21  1  0  0  0  0
  2 22  1  0  0  0  0
  3 23  1  0  0  0  0
  4 24  1  0  0  0  0
 10 25  1  0  0  0  0
 11 26  1  0  0  0  0
 12 27  1  0  0  0  0
 14 28  1  0  0  0  0
 14 29  1  0  0  0  0
 15 30  1  0  0  0  0
 15 31  1  0  0  0  0
 16 32  1  0  0  0  0
 16 33  1  0  0  0  0
 16 34  1  0  0  0  0
M  END
> <id>
EN300-211860

> <smiles>
CC=1C=CC2=NC(=CN2C1)C=3C=CC=4OCCOC4C3

> <MDLNUMBER>
MFCD02681178

> <IUPAC Name>
2-(2,3-dihydro-1,4-benzodioxin-6-yl)-6-methylimidazo[1,2-a]pyridine

> <CAS>
702636-92-8

> <URL>
https://www.enaminestore.com/catalog/EN300-211860

> <ROCS_ShapeQuery>
_x0404_0B

> <ROCS_TanimotoCombo>
0.428 

> <ROCS_ShapeTanimoto>
0.366 

> <ROCS_ColorTanimoto>
0.062 

> <ROCS_RefTversky>
0.318 

> <ROCS_RefColorTversky>
0.068 

> <ROCS_RefTverskyCombo>
0.386 

> <ROCS_FitTversky>
1.695 

> <ROCS_FitColorTversky>
0.427 

> <ROCS_FitTverskyCombo>
2.122 

> <ROCS_ColorScore>
-4.877

> <ROCS_Overlap>
2122.318

> <ROCS_Rank>
494                 

$$$$
untitled-dbase-19295_7
  -OEChem-08222312023D

 34 37  0     0  0  0  0  0  0999 V2000
   -8.7038    6.8053  -12.1715 C   0  0  0  0  0  0  0  0  0  0  0  0
   -8.7529    6.9736  -10.7876 C   0  0  0  0  0  0  0  0  0  0  0  0
   -8.9050    4.4118  -11.8948 C   0  0  0  0  0  0  0  0  0  0  0  0
   -7.6477    5.7442  -14.9346 C   0  0  0  0  0  0  0  0  0  0  0  0
   -8.7741    5.5260  -12.7240 C   0  0  0  0  0  0  0  0  0  0  0  0
   -8.8691    5.8588   -9.9569 C   0  0  0  0  0  0  0  0  0  0  0  0
   -8.9675    4.5802  -10.5114 C   0  0  0  0  0  0  0  0  0  0  0  0
   -8.7068    5.3553  -14.1485 C   0  0  0  0  0  0  0  0  0  0  0  0
   -9.2592    4.8097  -16.1396 C   0  0  0  0  0  0  0  0  0  0  0  0
   -9.8363    4.3623  -17.3625 C   0  0  0  0  0  0  0  0  0  0  0  0
   -9.1606    4.5185  -18.5172 C   0  0  0  0  0  0  0  0  0  0  0  0
   -7.2930    5.5613  -17.4016 C   0  0  0  0  0  0  0  0  0  0  0  0
   -7.8377    5.1395  -18.5587 C   0  0  0  0  0  0  0  0  0  0  0  0
   -8.6623    4.8870   -7.8597 C   0  0  0  0  0  0  0  0  0  0  0  0
   -9.5105    3.7572   -8.4103 C   0  0  0  0  0  0  0  0  0  0  0  0
   -7.1665    5.2687  -19.8878 C   0  0  0  0  0  0  0  0  0  0  0  0
   -9.6999    4.7782  -14.8986 N   0  0  0  0  0  0  0  0  0  0  0  0
   -7.9994    5.3955  -16.2135 N   0  0  0  0  0  0  0  0  0  0  0  0
   -8.8901    6.0859   -8.6056 O   0  0  0  0  0  0  0  0  0  0  0  0
   -9.1168    3.4502   -9.7507 O   0  0  0  0  0  0  0  0  0  0  0  0
   -8.6145    7.6829  -12.8077 H   0  0  0  0  0  0  0  0  0  0  0  0
   -8.7113    7.9740  -10.3657 H   0  0  0  0  0  0  0  0  0  0  0  0
   -8.9480    3.4102  -12.3180 H   0  0  0  0  0  0  0  0  0  0  0  0
   -6.7041    6.2232  -14.7086 H   0  0  0  0  0  0  0  0  0  0  0  0
  -10.8168    3.8995  -17.3504 H   0  0  0  0  0  0  0  0  0  0  0  0
   -9.5969    4.1799  -19.4517 H   0  0  0  0  0  0  0  0  0  0  0  0
   -6.3184    6.0314  -17.3415 H   0  0  0  0  0  0  0  0  0  0  0  0
   -8.8871    5.0833   -6.8041 H   0  0  0  0  0  0  0  0  0  0  0  0
   -7.5995    4.6402   -7.9429 H   0  0  0  0  0  0  0  0  0  0  0  0
   -9.4195    2.8493   -7.8014 H   0  0  0  0  0  0  0  0  0  0  0  0
  -10.5648    4.0492   -8.4320 H   0  0  0  0  0  0  0  0  0  0  0  0
   -7.4366    6.2195  -20.3459 H   0  0  0  0  0  0  0  0  0  0  0  0
   -7.4788    4.4530  -20.5395 H   0  0  0  0  0  0  0  0  0  0  0  0
   -6.0852    5.2240  -19.7604 H   0  0  0  0  0  0  0  0  0  0  0  0
  1  2  1  0  0  0  0
  1  5  2  0  0  0  0
  2  6  2  0  0  0  0
  3  5  1  0  0  0  0
  3  7  2  0  0  0  0
  4  8  2  0  0  0  0
  4 18  1  0  0  0  0
  5  8  1  0  0  0  0
  6  7  1  0  0  0  0
  6 19  1  0  0  0  0
  7 20  1  0  0  0  0
  8 17  1  0  0  0  0
  9 10  1  0  0  0  0
  9 17  2  0  0  0  0
  9 18  1  0  0  0  0
 10 11  2  0  0  0  0
 11 13  1  0  0  0  0
 12 13  2  0  0  0  0
 12 18  1  0  0  0  0
 13 16  1  0  0  0  0
 14 15  1  0  0  0  0
 14 19  1  0  0  0  0
 15 20  1  0  0  0  0
  1 21  1  0  0  0  0
  2 22  1  0  0  0  0
  3 23  1  0  0  0  0
  4 24  1  0  0  0  0
 10 25  1  0  0  0  0
 11 26  1  0  0  0  0
 12 27  1  0  0  0  0
 14 28  1  0  0  0  0
 14 29  1  0  0  0  0
 15 30  1  0  0  0  0
 15 31  1  0  0  0  0
 16 32  1  0  0  0  0
 16 33  1  0  0  0  0
 16 34  1  0  0  0  0
M  END
> <id>
EN300-253417

> <smiles>
Br.CC=1C=CC2=NC(=CN2C1)C=3C=CC=4OCCOC4C3

> <MDLNUMBER>
MFCD29055170

> <IUPAC Name>
2-(2,3-dihydro-1,4-benzodioxin-6-yl)-6-methylimidazo[1,2-a]pyridine hydrobromide

> <CAS>
1955554-15-0

> <URL>
https://www.enaminestore.com/catalog/EN300-253417

> <Saltdate>
Br

> <ROCS_ShapeQuery>
_x0404_0B

> <ROCS_TanimotoCombo>
0.428 

> <ROCS_ShapeTanimoto>
0.366 

> <ROCS_ColorTanimoto>
0.062 

> <ROCS_RefTversky>
0.318 

> <ROCS_RefColorTversky>
0.068 

> <ROCS_RefTverskyCombo>
0.386 

> <ROCS_FitTversky>
1.695 

> <ROCS_FitColorTversky>
0.427 

> <ROCS_FitTverskyCombo>
2.122 

> <ROCS_ColorScore>
-4.877

> <ROCS_Overlap>
2122.318

> <ROCS_Rank>
495                 

$$$$
untitled-dbase-106906_7869
  -OEChem-08222312023D

 52 54  0     1  0  0  0  0  0999 V2000
   -5.2591    5.9105  -17.8008 C   0  0  0  0  0  0  0  0  0  0  0  0
   -6.0284    6.1798  -16.6743 C   0  0  0  0  0  0  0  0  0  0  0  0
   -7.1491    4.8422  -18.7720 C   0  0  0  0  0  0  0  0  0  0  0  0
   -5.8227    5.2294  -18.8740 C   0  0  0  0  0  0  0  0  0  0  0  0
   -7.3457    5.7503  -16.6709 C   0  0  0  0  0  0  0  0  0  0  0  0
   -8.7486    5.1333   -8.7601 C   0  0  0  0  0  0  0  0  0  0  0  0
   -9.3216    5.0026  -15.1775 C   0  0  0  0  0  0  0  0  0  0  0  0
   -9.7438    5.2965  -13.7431 C   0  0  0  0  0  0  0  0  0  0  0  0
   -8.6355    6.7740  -11.9836 C   0  0  0  0  0  0  0  0  0  0  0  0
   -7.8761    4.3964  -12.2507 C   0  0  0  0  0  0  0  0  0  0  0  0
   -7.4386    6.0571  -14.1234 C   0  0  0  0  0  0  0  0  0  0  0  0
   -9.4877    6.3488  -10.7908 C   0  0  0  0  0  0  0  0  0  0  0  0
   -8.6992    4.0083  -11.0212 C   0  0  0  0  0  0  0  0  0  0  0  0
   -8.2154    6.0267  -15.4588 C   0  0  1  0  0  0  0  0  0  0  0  0
   -8.4314    5.6319  -13.0008 C   0  0  0  0  0  0  0  0  0  0  0  0
  -10.3068    3.9977   -7.1189 C   0  0  0  0  0  0  0  0  0  0  0  0
   -9.3392    1.8581   -8.0105 C   0  0  0  0  0  0  0  0  0  0  0  0
   -8.2192    3.0345   -6.0949 C   0  0  0  0  0  0  0  0  0  0  0  0
   -9.0221    3.2135   -7.3825 C   0  0  0  0  0  0  0  0  0  0  0  0
   -7.9279    5.0859  -17.6943 N   0  0  0  0  0  0  0  0  0  0  0  0
   -8.9349    5.1595  -10.1465 N   0  0  0  0  0  0  0  0  0  0  0  0
   -9.0223    6.0657   -8.0064 O   0  0  0  0  0  0  0  0  0  0  0  0
   -8.8161    7.3058  -15.6934 O   0  0  0  0  0  0  0  0  0  0  0  0
   -8.2245    3.9470   -8.3190 O   0  0  0  0  0  0  0  0  0  0  0  0
   -4.8147    4.8452  -20.4178 Br  0  0  0  0  0  0  0  0  0  0  0  0
   -4.2229    6.2370  -17.8278 H   0  0  0  0  0  0  0  0  0  0  0  0
   -5.6004    6.7109  -15.8307 H   0  0  0  0  0  0  0  0  0  0  0  0
   -7.6479    4.3071  -19.5747 H   0  0  0  0  0  0  0  0  0  0  0  0
   -8.9439    3.9745  -15.2507 H   0  0  0  0  0  0  0  0  0  0  0  0
  -10.1717    5.1057  -15.8616 H   0  0  0  0  0  0  0  0  0  0  0  0
  -10.4299    6.1528  -13.7339 H   0  0  0  0  0  0  0  0  0  0  0  0
  -10.2830    4.4506  -13.3041 H   0  0  0  0  0  0  0  0  0  0  0  0
   -9.1247    7.6210  -12.4798 H   0  0  0  0  0  0  0  0  0  0  0  0
   -7.6679    7.1385  -11.6224 H   0  0  0  0  0  0  0  0  0  0  0  0
   -6.8336    4.5685  -11.9466 H   0  0  0  0  0  0  0  0  0  0  0  0
   -7.8540    3.5332  -12.9331 H   0  0  0  0  0  0  0  0  0  0  0  0
   -6.5896    5.3625  -14.1646 H   0  0  0  0  0  0  0  0  0  0  0  0
   -7.0251    7.0577  -13.9461 H   0  0  0  0  0  0  0  0  0  0  0  0
   -9.5267    7.1391  -10.0341 H   0  0  0  0  0  0  0  0  0  0  0  0
  -10.5149    6.1662  -11.1199 H   0  0  0  0  0  0  0  0  0  0  0  0
   -9.6423    3.5568  -11.3476 H   0  0  0  0  0  0  0  0  0  0  0  0
   -8.1774    3.2514  -10.4223 H   0  0  0  0  0  0  0  0  0  0  0  0
  -10.0835    4.9713   -6.6681 H   0  0  0  0  0  0  0  0  0  0  0  0
  -10.8746    4.1632   -8.0403 H   0  0  0  0  0  0  0  0  0  0  0  0
  -10.9494    3.4674   -6.4068 H   0  0  0  0  0  0  0  0  0  0  0  0
   -8.4203    1.2920   -8.2014 H   0  0  0  0  0  0  0  0  0  0  0  0
   -9.8318    1.9835   -8.9815 H   0  0  0  0  0  0  0  0  0  0  0  0
   -9.9894    1.2568   -7.3670 H   0  0  0  0  0  0  0  0  0  0  0  0
   -7.2976    2.4720   -6.2837 H   0  0  0  0  0  0  0  0  0  0  0  0
   -7.9508    3.9980   -5.6496 H   0  0  0  0  0  0  0  0  0  0  0  0
   -8.7885    2.4567   -5.3578 H   0  0  0  0  0  0  0  0  0  0  0  0
   -9.3334    7.2259  -16.5109 H   0  0  0  0  0  0  0  0  0  0  0  0
  1  2  1  0  0  0  0
  1  4  2  0  0  0  0
  2  5  2  0  0  0  0
  3  4  1  0  0  0  0
  3 20  2  0  0  0  0
  4 25  1  0  0  0  0
  5 14  1  0  0  0  0
  5 20  1  0  0  0  0
  6 21  1  0  0  0  0
  6 22  2  0  0  0  0
  6 24  1  0  0  0  0
  7  8  1  0  0  0  0
  7 14  1  0  0  0  0
  8 15  1  0  0  0  0
  9 12  1  0  0  0  0
  9 15  1  0  0  0  0
 10 13  1  0  0  0  0
 10 15  1  0  0  0  0
 11 14  1  0  0  0  0
 11 15  1  0  0  0  0
 12 21  1  0  0  0  0
 13 21  1  0  0  0  0
 14 23  1  0  0  0  0
 16 19  1  0  0  0  0
 17 19  1  0  0  0  0
 18 19  1  0  0  0  0
 19 24  1  0  0  0  0
  1 26  1  0  0  0  0
  2 27  1  0  0  0  0
  3 28  1  0  0  0  0
  7 29  1  0  0  0  0
  7 30  1  0  0  0  0
  8 31  1  0  0  0  0
  8 32  1  0  0  0  0
  9 33  1  0  0  0  0
  9 34  1  0  0  0  0
 10 35  1  0  0  0  0
 10 36  1  0  0  0  0
 11 37  1  0  0  0  0
 11 38  1  0  0  0  0
 12 39  1  0  0  0  0
 12 40  1  0  0  0  0
 13 41  1  0  0  0  0
 13 42  1  0  0  0  0
 16 43  1  0  0  0  0
 16 44  1  0  0  0  0
 16 45  1  0  0  0  0
 17 46  1  0  0  0  0
 17 47  1  0  0  0  0
 17 48  1  0  0  0  0
 18 49  1  0  0  0  0
 18 50  1  0  0  0  0
 18 51  1  0  0  0  0
 23 52  1  0  0  0  0
M  END
> <id>
EN300-7428812

> <smiles>
CC(C)(C)OC(=O)N1CCC2(CCC(O)(C2)C=3C=CC(Br)=CN3)CC1

> <IUPAC Name>
tert-butyl 2-(5-bromopyridin-2-yl)-2-hydroxy-8-azaspiro[4.5]decane-8-carboxylate

> <CAS>
2309459-87-6

> <URL>
https://www.enaminestore.com/catalog/EN300-7428812

> <ROCS_ShapeQuery>
_x0404_0B

> <ROCS_TanimotoCombo>
0.428 

> <ROCS_ShapeTanimoto>
0.373 

> <ROCS_ColorTanimoto>
0.055 

> <ROCS_RefTversky>
0.328 

> <ROCS_RefColorTversky>
0.061 

> <ROCS_RefTverskyCombo>
0.389 

> <ROCS_FitTversky>
1.569 

> <ROCS_FitColorTversky>
0.358 

> <ROCS_FitTverskyCombo>
1.927 

> <ROCS_ColorScore>
-4.415

> <ROCS_Overlap>
2192.796

> <ROCS_Rank>
496                 

$$$$
untitled-dbase-83598_0
  -OEChem-08222312023D

 32 34  0     0  0  0  0  0  0999 V2000
   -6.3637    4.8977  -17.3211 C   0  0  0  0  0  0  0  0  0  0  0  0
   -8.8970    4.3023  -18.7237 C   0  0  0  0  0  0  0  0  0  0  0  0
   -8.7077    8.1959  -13.6709 C   0  0  0  0  0  0  0  0  0  0  0  0
   -8.9638    2.8262   -9.4111 C   0  0  0  0  0  0  0  0  0  0  0  0
   -8.9049    3.9647   -8.5821 C   0  0  0  0  0  0  0  0  0  0  0  0
   -8.9627    2.9456  -10.8031 C   0  0  0  0  0  0  0  0  0  0  0  0
   -8.8436    5.2536   -9.1228 C   0  0  0  0  0  0  0  0  0  0  0  0
   -7.6511    5.2153  -16.7942 C   0  0  0  0  0  0  0  0  0  0  0  0
   -8.8315    4.9375  -17.4476 C   0  0  0  0  0  0  0  0  0  0  0  0
   -8.9026    4.2173  -11.3267 C   0  0  0  0  0  0  0  0  0  0  0  0
   -8.8432    5.3714  -10.4969 C   0  0  0  0  0  0  0  0  0  0  0  0
   -8.8268    6.1324  -15.0603 C   0  0  0  0  0  0  0  0  0  0  0  0
  -10.0072    5.8553  -15.7141 C   0  0  0  0  0  0  0  0  0  0  0  0
   -8.8155    6.0326  -12.6578 C   0  0  0  0  0  0  0  0  0  0  0  0
   -8.7786    6.7727  -13.7766 C   0  0  0  0  0  0  0  0  0  0  0  0
   -8.7125    7.8421  -10.8026 C   0  0  0  0  0  0  0  0  0  0  0  0
   -5.3166    4.6394  -17.7497 N   0  0  0  0  0  0  0  0  0  0  0  0
   -8.9504    3.7856  -19.7615 N   0  0  0  0  0  0  0  0  0  0  0  0
   -8.6497    9.3520  -13.5866 N   0  0  0  0  0  0  0  0  0  0  0  0
   -7.6276    5.8178  -15.5888 N   0  0  0  0  0  0  0  0  0  0  0  0
  -10.0307    5.2525  -16.9193 N   0  0  0  0  0  0  0  0  0  0  0  0
   -8.8849    4.6402  -12.6584 N   0  0  0  0  0  0  0  0  0  0  0  0
   -8.7912    6.5028  -11.3306 N   0  0  0  0  0  0  0  0  0  0  0  0
  -11.5606    6.2347  -15.0897 Cl  0  0  0  0  0  0  0  0  0  0  0  0
   -9.0114    1.8393   -8.9575 H   0  0  0  0  0  0  0  0  0  0  0  0
   -8.9071    3.8364   -7.5025 H   0  0  0  0  0  0  0  0  0  0  0  0
   -9.0074    2.0680  -11.4373 H   0  0  0  0  0  0  0  0  0  0  0  0
   -8.7985    6.1190   -8.4717 H   0  0  0  0  0  0  0  0  0  0  0  0
   -7.6571    8.1270  -10.6799 H   0  0  0  0  0  0  0  0  0  0  0  0
   -9.2019    8.5397  -11.4981 H   0  0  0  0  0  0  0  0  0  0  0  0
   -9.2187    7.8817   -9.8268 H   0  0  0  0  0  0  0  0  0  0  0  0
   -8.9145    4.0656  -13.4826 H   0  0  0  0  0  0  0  0  0  0  0  0
  1  8  1  0  0  0  0
  1 17  3  0  0  0  0
  2  9  1  0  0  0  0
  2 18  3  0  0  0  0
  3 15  1  0  0  0  0
  3 19  3  0  0  0  0
  4  5  2  0  0  0  0
  4  6  1  0  0  0  0
  5  7  1  0  0  0  0
  6 10  2  0  0  0  0
  7 11  2  0  0  0  0
  8  9  2  0  0  0  0
  8 20  1  0  0  0  0
  9 21  1  0  0  0  0
 10 11  1  0  0  0  0
 10 22  1  0  0  0  0
 11 23  1  0  0  0  0
 12 13  1  0  0  0  0
 12 15  1  0  0  0  0
 12 20  2  0  0  0  0
 13 21  2  0  0  0  0
 13 24  1  0  0  0  0
 14 15  2  3  0  0  0
 14 22  1  0  0  0  0
 14 23  1  0  0  0  0
 16 23  1  0  0  0  0
  4 25  1  0  0  0  0
  5 26  1  0  0  0  0
  6 27  1  0  0  0  0
  7 28  1  0  0  0  0
 16 29  1  0  0  0  0
 16 30  1  0  0  0  0
 16 31  1  0  0  0  0
 22 32  1  0  0  0  0
M  END
> <id>
EN300-22917288

> <smiles>
CN1C(=C(C#N)C=2N=C(C#N)C(C#N)=NC2Cl)NC=3C=CC=CC13

> <IUPAC Name>
5-chloro-6-[cyano(1-methyl-2,3-dihydro-1H-1,3-benzodiazol-2-ylidene)methyl]pyrazine-2,3-dicarbonitrile

> <CAS>
302803-98-1

> <URL>
https://www.enaminestore.com/catalog/EN300-22917288

> <ROCS_ShapeQuery>
_x0404_0B

> <ROCS_TanimotoCombo>
0.428 

> <ROCS_ShapeTanimoto>
0.369 

> <ROCS_ColorTanimoto>
0.059 

> <ROCS_RefTversky>
0.326 

> <ROCS_RefColorTversky>
0.065 

> <ROCS_RefTverskyCombo>
0.391 

> <ROCS_FitTversky>
1.553 

> <ROCS_FitColorTversky>
0.379 

> <ROCS_FitTverskyCombo>
1.932 

> <ROCS_ColorScore>
-4.684

> <ROCS_Overlap>
2178.837

> <ROCS_Rank>
497                 

$$$$
untitled-dbase-6957_736
  -OEChem-08222312023D

 46 47  0     1  0  0  0  0  0999 V2000
   -7.0003    4.7084  -16.5311 C   0  0  0  0  0  0  0  0  0  0  0  0
   -9.2738    5.0034  -15.7687 C   0  0  0  0  0  0  0  0  0  0  0  0
   -7.4212    4.8744  -17.8505 C   0  0  0  0  0  0  0  0  0  0  0  0
   -9.6947    5.1694  -17.0882 C   0  0  0  0  0  0  0  0  0  0  0  0
   -7.9267    4.7729  -15.4902 C   0  0  0  0  0  0  0  0  0  0  0  0
   -8.7684    5.1049  -18.1291 C   0  0  0  0  0  0  0  0  0  0  0  0
   -8.8769    4.5684   -9.9303 C   0  0  0  0  0  0  0  0  0  0  0  0
   -7.7239    5.8495  -13.1901 C   0  0  0  0  0  0  0  0  0  0  0  0
   -8.8310    5.6592  -12.1572 C   0  0  0  0  0  0  0  0  0  0  0  0
   -7.9806    3.3184  -11.9098 C   0  0  0  0  0  0  0  0  0  0  0  0
   -7.4679    4.5917  -14.0490 C   0  0  1  0  0  0  0  0  0  0  0  0
   -8.0900    3.3211  -13.4324 C   0  0  1  0  0  0  0  0  0  0  0  0
   -9.6313    4.1715   -7.1993 C   0  0  0  0  0  0  0  0  0  0  0  0
   -9.3306    1.7215   -7.6644 C   0  0  0  0  0  0  0  0  0  0  0  0
   -7.3712    3.2809   -7.8578 C   0  0  0  0  0  0  0  0  0  0  0  0
   -9.2174    5.2840  -19.5400 C   0  0  0  0  0  0  0  0  0  0  0  0
   -8.8819    3.1338   -8.0338 C   0  0  0  0  0  0  0  0  0  0  0  0
   -8.5720    4.5074  -11.2940 N   0  0  0  0  0  0  0  0  0  0  0  0
   -8.8540    5.5979   -9.2587 O   0  0  0  0  0  0  0  0  0  0  0  0
   -7.4315    2.1629  -13.9449 O   0  0  0  0  0  0  0  0  0  0  0  0
   -9.2025    3.3412   -9.4141 O   0  0  0  0  0  0  0  0  0  0  0  0
   -8.2042    5.1976  -20.4521 F   0  0  0  0  0  0  0  0  0  0  0  0
  -10.1383    4.3589  -19.9423 F   0  0  0  0  0  0  0  0  0  0  0  0
   -9.8009    6.4990  -19.7552 F   0  0  0  0  0  0  0  0  0  0  0  0
   -5.9488    4.5286  -16.3234 H   0  0  0  0  0  0  0  0  0  0  0  0
  -10.0021    5.0563  -14.9636 H   0  0  0  0  0  0  0  0  0  0  0  0
   -6.6924    4.8242  -18.6550 H   0  0  0  0  0  0  0  0  0  0  0  0
  -10.7463    5.3484  -17.2964 H   0  0  0  0  0  0  0  0  0  0  0  0
   -7.9848    6.7042  -13.8415 H   0  0  0  0  0  0  0  0  0  0  0  0
   -6.7923    6.1450  -12.6756 H   0  0  0  0  0  0  0  0  0  0  0  0
   -8.9050    6.5432  -11.5072 H   0  0  0  0  0  0  0  0  0  0  0  0
   -9.7988    5.5532  -12.6653 H   0  0  0  0  0  0  0  0  0  0  0  0
   -8.4233    2.3917  -11.5102 H   0  0  0  0  0  0  0  0  0  0  0  0
   -6.9212    3.2840  -11.5987 H   0  0  0  0  0  0  0  0  0  0  0  0
   -6.3546    4.4243  -14.1206 H   0  0  0  0  0  0  0  0  0  0  0  0
   -9.1593    3.2446  -13.7196 H   0  0  0  0  0  0  0  0  0  0  0  0
   -9.3120    5.1866   -7.4615 H   0  0  0  0  0  0  0  0  0  0  0  0
  -10.7142    4.0995   -7.3436 H   0  0  0  0  0  0  0  0  0  0  0  0
   -9.4151    4.0454   -6.1323 H   0  0  0  0  0  0  0  0  0  0  0  0
   -8.7955    0.9737   -8.2607 H   0  0  0  0  0  0  0  0  0  0  0  0
  -10.3964    1.5820   -7.8786 H   0  0  0  0  0  0  0  0  0  0  0  0
   -9.1590    1.5073   -6.6046 H   0  0  0  0  0  0  0  0  0  0  0  0
   -6.8335    2.5366   -8.4562 H   0  0  0  0  0  0  0  0  0  0  0  0
   -7.0259    4.2769   -8.1533 H   0  0  0  0  0  0  0  0  0  0  0  0
   -7.0817    3.1070   -6.8151 H   0  0  0  0  0  0  0  0  0  0  0  0
   -7.5222    2.2004  -14.9090 H   0  0  0  0  0  0  0  0  0  0  0  0
  1  3  1  0  0  0  0
  1  5  2  0  0  0  0
  2  4  2  0  0  0  0
  2  5  1  0  0  0  0
  3  6  2  0  0  0  0
  4  6  1  0  0  0  0
  5 11  1  0  0  0  0
  6 16  1  0  0  0  0
  7 18  1  0  0  0  0
  7 19  2  0  0  0  0
  7 21  1  0  0  0  0
  8  9  1  0  0  0  0
  8 11  1  0  0  0  0
  9 18  1  0  0  0  0
 10 12  1  0  0  0  0
 10 18  1  0  0  0  0
 11 12  1  0  0  0  0
 12 20  1  0  0  0  0
 13 17  1  0  0  0  0
 14 17  1  0  0  0  0
 15 17  1  0  0  0  0
 16 22  1  0  0  0  0
 16 23  1  0  0  0  0
 16 24  1  0  0  0  0
 17 21  1  0  0  0  0
  1 25  1  0  0  0  0
  2 26  1  0  0  0  0
  3 27  1  0  0  0  0
  4 28  1  0  0  0  0
  8 29  1  0  0  0  0
  8 30  1  0  0  0  0
  9 31  1  0  0  0  0
  9 32  1  0  0  0  0
 10 33  1  0  0  0  0
 10 34  1  0  0  0  0
 11 35  1  0  0  0  0
 12 36  1  0  0  0  0
 13 37  1  0  0  0  0
 13 38  1  0  0  0  0
 13 39  1  0  0  0  0
 14 40  1  0  0  0  0
 14 41  1  0  0  0  0
 14 42  1  0  0  0  0
 15 43  1  0  0  0  0
 15 44  1  0  0  0  0
 15 45  1  0  0  0  0
 20 46  1  0  0  0  0
M  END
> <id>
EN300-94552

> <smiles>
CC(C)(C)OC(=O)N1CCC(C(O)C1)C=2C=CC(=CC2)C(F)(F)F

> <MDLNUMBER>
MFCD20502196

> <IUPAC Name>
tert-butyl 3-hydroxy-4-[4-(trifluoromethyl)phenyl]piperidine-1-carboxylate

> <CAS>
1004619-28-6

> <Purity>
95

> <URL>
https://www.enaminestore.com/catalog/EN300-94552

> <ROCS_ShapeQuery>
_x0404_0B

> <ROCS_TanimotoCombo>
0.428 

> <ROCS_ShapeTanimoto>
0.337 

> <ROCS_ColorTanimoto>
0.090 

> <ROCS_RefTversky>
0.304 

> <ROCS_RefColorTversky>
0.094 

> <ROCS_RefTverskyCombo>
0.397 

> <ROCS_FitTversky>
1.488 

> <ROCS_FitColorTversky>
0.714 

> <ROCS_FitTverskyCombo>
2.202 

> <ROCS_ColorScore>
-6.768

> <ROCS_Overlap>
2027.233

> <ROCS_Rank>
498                 

$$$$
untitled-dbase-175356_1020
  -OEChem-08222312023D

 42 44  0     0  0  0  0  0  0999 V2000
   -9.1266    1.8539   -8.2457 C   0  0  0  0  0  0  0  0  0  0  0  0
   -9.0356    2.6313   -9.4003 C   0  0  0  0  0  0  0  0  0  0  0  0
   -9.1455    2.4661   -6.9925 C   0  0  0  0  0  0  0  0  0  0  0  0
   -8.9824    4.6329   -8.0484 C   0  0  0  0  0  0  0  0  0  0  0  0
   -8.9635    4.0208   -9.3017 C   0  0  0  0  0  0  0  0  0  0  0  0
   -9.0734    3.8556   -6.8938 C   0  0  0  0  0  0  0  0  0  0  0  0
   -8.8672    4.8353  -10.5133 C   0  0  0  0  0  0  0  0  0  0  0  0
   -8.8363    4.4143  -11.7835 C   0  0  0  0  0  0  0  0  0  0  0  0
   -8.8103    6.3219  -10.5474 C   0  0  0  0  0  0  0  0  0  0  0  0
   -8.6007    5.4283  -16.1334 C   0  0  0  0  0  0  0  0  0  0  0  0
   -9.7886    5.5917  -13.8506 C   0  0  0  0  0  0  0  0  0  0  0  0
   -7.6351    5.5084  -13.7613 C   0  0  0  0  0  0  0  0  0  0  0  0
   -8.7571    5.5584  -12.7047 C   0  0  0  0  0  0  0  0  0  0  0  0
   -8.5063    3.8605  -18.5177 C   0  0  0  0  0  0  0  0  0  0  0  0
  -11.0157    3.9543  -18.4582 C   0  0  0  0  0  0  0  0  0  0  0  0
   -9.6903    6.0741  -18.6991 C   0  0  0  0  0  0  0  0  0  0  0  0
   -9.7232    4.6761  -18.0832 C   0  0  0  0  0  0  0  0  0  0  0  0
   -8.6735    5.5012  -14.7698 N   0  0  0  0  0  0  0  0  0  0  0  0
   -8.8053    7.0639   -9.5804 O   0  0  0  0  0  0  0  0  0  0  0  0
   -7.6669    5.8665  -16.7996 O   0  0  0  0  0  0  0  0  0  0  0  0
   -8.7486    6.7264  -11.8531 O   0  0  0  0  0  0  0  0  0  0  0  0
   -8.8954    3.1225  -12.2211 O   0  0  0  0  0  0  0  0  0  0  0  0
   -9.6995    4.8055  -16.6574 O   0  0  0  0  0  0  0  0  0  0  0  0
   -9.0984    4.6839   -5.1951 Br  0  0  0  0  0  0  0  0  0  0  0  0
   -9.1821    0.7720   -8.3225 H   0  0  0  0  0  0  0  0  0  0  0  0
   -9.0222    2.1397  -10.3701 H   0  0  0  0  0  0  0  0  0  0  0  0
   -9.2170    1.8456   -6.1024 H   0  0  0  0  0  0  0  0  0  0  0  0
   -8.9266    5.7171   -7.9729 H   0  0  0  0  0  0  0  0  0  0  0  0
  -10.4757    4.7432  -13.9293 H   0  0  0  0  0  0  0  0  0  0  0  0
  -10.3495    6.5268  -13.9474 H   0  0  0  0  0  0  0  0  0  0  0  0
   -6.9976    6.3975  -13.8060 H   0  0  0  0  0  0  0  0  0  0  0  0
   -7.0110    4.6092  -13.7849 H   0  0  0  0  0  0  0  0  0  0  0  0
   -7.5765    4.3752  -18.2503 H   0  0  0  0  0  0  0  0  0  0  0  0
   -8.4998    2.8681  -18.0552 H   0  0  0  0  0  0  0  0  0  0  0  0
   -8.4881    3.7351  -19.6063 H   0  0  0  0  0  0  0  0  0  0  0  0
  -11.8914    4.5359  -18.1483 H   0  0  0  0  0  0  0  0  0  0  0  0
  -11.0877    2.9897  -17.9428 H   0  0  0  0  0  0  0  0  0  0  0  0
  -11.0811    3.7770  -19.5366 H   0  0  0  0  0  0  0  0  0  0  0  0
  -10.5630    6.6593  -18.3876 H   0  0  0  0  0  0  0  0  0  0  0  0
   -8.7867    6.6208  -18.4105 H   0  0  0  0  0  0  0  0  0  0  0  0
   -9.7294    6.0189  -19.7931 H   0  0  0  0  0  0  0  0  0  0  0  0
   -8.8545    3.0869  -13.1873 H   0  0  0  0  0  0  0  0  0  0  0  0
  1  2  1  0  0  0  0
  1  3  2  0  0  0  0
  2  5  2  0  0  0  0
  3  6  1  0  0  0  0
  4  5  1  0  0  0  0
  4  6  2  0  0  0  0
  5  7  1  0  0  0  0
  6 24  1  0  0  0  0
  7  8  2  0  0  0  0
  7  9  1  0  0  0  0
  8 13  1  0  0  0  0
  8 22  1  0  0  0  0
  9 19  2  0  0  0  0
  9 21  1  0  0  0  0
 10 18  1  0  0  0  0
 10 20  2  0  0  0  0
 10 23  1  0  0  0  0
 11 13  1  0  0  0  0
 11 18  1  0  0  0  0
 12 13  1  0  0  0  0
 12 18  1  0  0  0  0
 13 21  1  0  0  0  0
 14 17  1  0  0  0  0
 15 17  1  0  0  0  0
 16 17  1  0  0  0  0
 17 23  1  0  0  0  0
  1 25  1  0  0  0  0
  2 26  1  0  0  0  0
  3 27  1  0  0  0  0
  4 28  1  0  0  0  0
 11 29  1  0  0  0  0
 11 30  1  0  0  0  0
 12 31  1  0  0  0  0
 12 32  1  0  0  0  0
 14 33  1  0  0  0  0
 14 34  1  0  0  0  0
 14 35  1  0  0  0  0
 15 36  1  0  0  0  0
 15 37  1  0  0  0  0
 15 38  1  0  0  0  0
 16 39  1  0  0  0  0
 16 40  1  0  0  0  0
 16 41  1  0  0  0  0
 22 42  1  0  0  0  0
M  END
> <id>
EN300-1645858

> <smiles>
CC(C)(C)OC(=O)N1CC2(C1)OC(=O)C(=C2O)C=3C=CC=C(Br)C3

> <IUPAC Name>
tert-butyl 7-(3-bromophenyl)-8-hydroxy-6-oxo-5-oxa-2-azaspiro[3.4]oct-7-ene-2-carboxylate

> <CAS>
2172528-81-1

> <URL>
https://www.enaminestore.com/catalog/EN300-1645858

> <ROCS_ShapeQuery>
_x0404_0B

> <ROCS_TanimotoCombo>
0.427 

> <ROCS_ShapeTanimoto>
0.377 

> <ROCS_ColorTanimoto>
0.050 

> <ROCS_RefTversky>
0.331 

> <ROCS_RefColorTversky>
0.055 

> <ROCS_RefTverskyCombo>
0.386 

> <ROCS_FitTversky>
1.599 

> <ROCS_FitColorTversky>
0.351 

> <ROCS_FitTverskyCombo>
1.950 

> <ROCS_ColorScore>
-3.997

> <ROCS_Overlap>
2208.000

> <ROCS_Rank>
499                 

$$$$
untitled-dbase-118872_347
  -OEChem-08222312023D

 44 46  0     1  0  0  0  0  0999 V2000
   -8.9244    6.5846   -8.6784 C   0  0  0  0  0  0  0  0  0  0  0  0
   -9.2840    5.6743   -7.6767 C   0  0  0  0  0  0  0  0  0  0  0  0
   -8.5523    6.1434   -9.9498 C   0  0  0  0  0  0  0  0  0  0  0  0
   -9.5401    3.1017   -7.2892 C   0  0  0  0  0  0  0  0  0  0  0  0
   -9.2626    4.3022   -7.9777 C   0  0  0  0  0  0  0  0  0  0  0  0
   -8.5263    4.7809  -10.2647 C   0  0  0  0  0  0  0  0  0  0  0  0
   -8.8881    3.8901   -9.2517 C   0  0  0  0  0  0  0  0  0  0  0  0
   -8.6218    5.2676  -15.1998 C   0  0  0  0  0  0  0  0  0  0  0  0
   -7.6971    2.4267  -13.0974 C   0  0  0  0  0  0  0  0  0  0  0  0
   -8.6007    3.0076  -14.1796 C   0  0  0  0  0  0  0  0  0  0  0  0
   -9.0284    4.9604  -12.7239 C   0  0  0  0  0  0  0  0  0  0  0  0
   -8.1147    4.3314  -11.6564 C   0  0  2  0  0  0  0  0  0  0  0  0
   -6.9890    4.7386  -17.4899 C   0  0  0  0  0  0  0  0  0  0  0  0
   -9.1423    4.2217  -18.6753 C   0  0  0  0  0  0  0  0  0  0  0  0
   -8.7344    6.5297  -17.7728 C   0  0  0  0  0  0  0  0  0  0  0  0
   -8.4858    5.0367  -17.5631 C   0  0  0  0  0  0  0  0  0  0  0  0
   -9.3617    2.0168   -8.0463 N   0  0  0  0  0  0  0  0  0  0  0  0
   -8.9678    2.5238   -9.2264 N   0  0  0  0  0  0  0  0  0  0  0  0
   -8.1051    2.8631  -11.7615 N   0  0  0  0  0  0  0  0  0  0  0  0
   -8.7029    4.4594  -14.0624 N   0  0  0  0  0  0  0  0  0  0  0  0
   -8.1791    6.4149  -15.2041 O   0  0  0  0  0  0  0  0  0  0  0  0
   -9.0900    4.6432  -16.3256 O   0  0  0  0  0  0  0  0  0  0  0  0
   -8.9354    7.6497   -8.4615 H   0  0  0  0  0  0  0  0  0  0  0  0
   -9.5716    6.0293   -6.6918 H   0  0  0  0  0  0  0  0  0  0  0  0
   -8.2800    6.8792  -10.7035 H   0  0  0  0  0  0  0  0  0  0  0  0
   -9.8662    2.9740   -6.2665 H   0  0  0  0  0  0  0  0  0  0  0  0
   -7.7332    1.3326  -13.1385 H   0  0  0  0  0  0  0  0  0  0  0  0
   -6.6539    2.7128  -13.2783 H   0  0  0  0  0  0  0  0  0  0  0  0
   -8.2269    2.7257  -15.1692 H   0  0  0  0  0  0  0  0  0  0  0  0
   -9.6172    2.6055  -14.0877 H   0  0  0  0  0  0  0  0  0  0  0  0
  -10.0811    4.7068  -12.5405 H   0  0  0  0  0  0  0  0  0  0  0  0
   -8.9541    6.0521  -12.6834 H   0  0  0  0  0  0  0  0  0  0  0  0
   -7.0824    4.7027  -11.8017 H   0  0  0  0  0  0  0  0  0  0  0  0
   -6.5140    5.3217  -16.6928 H   0  0  0  0  0  0  0  0  0  0  0  0
   -6.7978    3.6765  -17.3049 H   0  0  0  0  0  0  0  0  0  0  0  0
   -6.4875    5.0233  -18.4219 H   0  0  0  0  0  0  0  0  0  0  0  0
  -10.2164    4.4324  -18.7314 H   0  0  0  0  0  0  0  0  0  0  0  0
   -9.0484    3.1474  -18.4793 H   0  0  0  0  0  0  0  0  0  0  0  0
   -8.6954    4.4364  -19.6513 H   0  0  0  0  0  0  0  0  0  0  0  0
   -9.8080    6.7438  -17.8253 H   0  0  0  0  0  0  0  0  0  0  0  0
   -8.3019    7.1280  -16.9643 H   0  0  0  0  0  0  0  0  0  0  0  0
   -8.3050    6.8665  -18.7233 H   0  0  0  0  0  0  0  0  0  0  0  0
   -8.7675    1.8781   -9.9800 H   0  0  0  0  0  0  0  0  0  0  0  0
   -9.0470    2.5127  -11.5813 H   0  0  0  0  0  0  0  0  0  0  0  0
  1  2  2  0  0  0  0
  1  3  1  0  0  0  0
  2  5  1  0  0  0  0
  3  6  2  0  0  0  0
  4  5  1  0  0  0  0
  4 17  2  0  0  0  0
  5  7  2  0  0  0  0
  6  7  1  0  0  0  0
  6 12  1  0  0  0  0
  7 18  1  0  0  0  0
  8 20  1  0  0  0  0
  8 21  2  0  0  0  0
  8 22  1  0  0  0  0
  9 10  1  0  0  0  0
  9 19  1  0  0  0  0
 10 20  1  0  0  0  0
 11 12  1  0  0  0  0
 11 20  1  0  0  0  0
 12 19  1  0  0  0  0
 13 16  1  0  0  0  0
 14 16  1  0  0  0  0
 15 16  1  0  0  0  0
 16 22  1  0  0  0  0
 17 18  1  0  0  0  0
  1 23  1  0  0  0  0
  2 24  1  0  0  0  0
  3 25  1  0  0  0  0
  4 26  1  0  0  0  0
  9 27  1  0  0  0  0
  9 28  1  0  0  0  0
 10 29  1  0  0  0  0
 10 30  1  0  0  0  0
 11 31  1  0  0  0  0
 11 32  1  0  0  0  0
 12 33  1  0  0  0  0
 13 34  1  0  0  0  0
 13 35  1  0  0  0  0
 13 36  1  0  0  0  0
 14 37  1  0  0  0  0
 14 38  1  0  0  0  0
 14 39  1  0  0  0  0
 15 40  1  0  0  0  0
 15 41  1  0  0  0  0
 15 42  1  0  0  0  0
 18 43  1  0  0  0  0
 19 44  1  0  0  0  0
M  END
> <id>
EN300-1894316

> <smiles>
CC(C)(C)OC(=O)N1CCNC(C1)C=2C=CC=C3C=NNC23

> <IUPAC Name>
tert-butyl 3-(1H-indazol-7-yl)piperazine-1-carboxylate

> <CAS>
2228668-41-3

> <URL>
https://www.enaminestore.com/catalog/EN300-1894316

> <ROCS_ShapeQuery>
_x0404_0B

> <ROCS_TanimotoCombo>
0.427 

> <ROCS_ShapeTanimoto>
0.350 

> <ROCS_ColorTanimoto>
0.077 

> <ROCS_RefTversky>
0.310 

> <ROCS_RefColorTversky>
0.084 

> <ROCS_RefTverskyCombo>
0.394 

> <ROCS_FitTversky>
1.590 

> <ROCS_FitColorTversky>
0.492 

> <ROCS_FitTverskyCombo>
2.082 

> <ROCS_ColorScore>
-6.078

> <ROCS_Overlap>
2067.670

> <ROCS_Rank>
500                 

$$$$
